File C:\Users\AGarciaPuyol\Documents\GitHub\DynamoSAP\samples\sap_files\Dome.$2k was saved on 1/26/15 at 14:20:08
 
TABLE:  "ACTIVE DEGREES OF FREEDOM"
   UX=Yes   UY=Yes   UZ=Yes   RX=Yes   RY=Yes   RZ=Yes
 
TABLE:  "ANALYSIS OPTIONS"
   Solver=Advanced   SolverProc=Auto   Force32Bit=No   StiffCase=None   GeomMod=No
 
TABLE:  "AUTO WAVE 3 - WAVE CHARACTERISTICS - GENERAL"
   WaveChar=Default   WaveType="From Theory"   KinFactor=1   SWaterDepth=45   WaveHeight=18   WavePeriod=12   WaveTheory=Linear
 
TABLE:  "CASE - MODAL 1 - GENERAL"
   Case=MODAL   ModeType=Eigen   MaxNumModes=12   MinNumModes=1   EigenShift=0   EigenCutoff=0   EigenTol=0.000000001   AutoShift=Yes
 
TABLE:  "CASE - STATIC 1 - LOAD ASSIGNMENTS"
   Case=DEAD   LoadType="Load pattern"   LoadName=DEAD   LoadSF=1
 
TABLE:  "CONNECTIVITY - FRAME"
   Frame=1   JointI=1   JointJ=2   IsCurved=No   GUID=a3df673f-efe7-4b53-9340-e2e7966aa1f4
   Frame=2   JointI=1   JointJ=3   IsCurved=No   GUID=0898162e-be8d-44ff-8869-d8153573f8bb
   Frame=3   JointI=4   JointJ=5   IsCurved=No   GUID=7fb64e4b-243d-4492-80fe-05bb3a85cdfc
   Frame=4   JointI=6   JointJ=7   IsCurved=No   GUID=865cf544-b745-448d-89eb-18ada8b75861
   Frame=5   JointI=6   JointJ=8   IsCurved=No   GUID=68eb25f2-294f-4307-b65f-b46af320dc82
   Frame=6   JointI=9   JointJ=10   IsCurved=No   GUID=a09e5d11-91be-4c0d-a0e3-c780b6c2a56a
   Frame=7   JointI=9   JointJ=11   IsCurved=No   GUID=715c70ea-d30d-43a7-a5d2-e9a498ed3e47
   Frame=8   JointI=12   JointJ=13   IsCurved=No   GUID=5491d3c0-146c-4be0-b250-30a452651438
   Frame=9   JointI=12   JointJ=14   IsCurved=No   GUID=579b0436-408a-4550-a74b-0c112c7de6e3
   Frame=10   JointI=15   JointJ=16   IsCurved=No   GUID=3f33b4ee-62a0-4d44-998d-bcd5d8d8bd1a
   Frame=11   JointI=15   JointJ=17   IsCurved=No   GUID=7b162fa5-ff23-4a87-8836-903273096fab
   Frame=12   JointI=18   JointJ=19   IsCurved=No   GUID=0f11ceca-b0c4-4f09-a1db-0cf955e660a2
   Frame=13   JointI=18   JointJ=20   IsCurved=No   GUID=a1b26d73-048f-428b-ade5-0912eca588f0
   Frame=14   JointI=4   JointJ=21   IsCurved=No   GUID=814c3696-f7d7-4154-ae0f-146efa7d75a5
   Frame=15   JointI=22   JointJ=23   IsCurved=No   GUID=aa59b949-b287-4116-9360-a543a01c1b93
   Frame=16   JointI=22   JointJ=24   IsCurved=No   GUID=e503c578-0d8f-471e-99d8-770a8fde1118
   Frame=17   JointI=25   JointJ=26   IsCurved=No   GUID=6a3ce1b1-ff62-403e-b1ad-f8c07e583ba2
   Frame=18   JointI=25   JointJ=27   IsCurved=No   GUID=c604dce0-e6a4-4d40-b303-aa4ed0d6763e
   Frame=19   JointI=28   JointJ=29   IsCurved=No   GUID=d3e5d3c8-a248-4f6a-84a4-a10d57e16ada
   Frame=20   JointI=28   JointJ=30   IsCurved=No   GUID=84f239c6-9bf7-460a-966a-11a3a695bee5
   Frame=21   JointI=31   JointJ=32   IsCurved=No   GUID=f1752ceb-d4e1-4a88-b44b-ae616e6f3470
   Frame=22   JointI=31   JointJ=33   IsCurved=No   GUID=3cc7d647-153d-4428-97c0-1a9d847bb10f
   Frame=23   JointI=34   JointJ=3   IsCurved=No   GUID=28ed53cf-e849-431e-ad25-c824ec8467a9
   Frame=24   JointI=34   JointJ=35   IsCurved=No   GUID=6b146e98-65f7-4be6-99c6-320dbb8a517f
   Frame=25   JointI=36   JointJ=37   IsCurved=No   GUID=4432da88-772f-4c7e-b2dc-f3fb5dc4cabc
   Frame=26   JointI=38   JointJ=3   IsCurved=No   GUID=de80f049-c0a0-4a26-b968-7521e4594385
   Frame=27   JointI=38   JointJ=39   IsCurved=No   GUID=c166e54e-6e16-45bf-b7fc-e208300dc8a9
   Frame=28   JointI=40   JointJ=41   IsCurved=No   GUID=25ffcec8-ce02-4b95-bed9-98219c551b1e
   Frame=29   JointI=40   JointJ=42   IsCurved=No   GUID=eb314c92-288b-43a0-91af-251e866874b2
   Frame=30   JointI=43   JointJ=44   IsCurved=No   GUID=e805ad6b-fc93-4742-9ff3-204e5c8b5f93
   Frame=31   JointI=43   JointJ=45   IsCurved=No   GUID=9e3d338d-3c4a-43b2-8196-f89b1e018831
   Frame=32   JointI=46   JointJ=47   IsCurved=No   GUID=96894e24-9676-4aae-b4a4-d6729ec84d93
   Frame=33   JointI=46   JointJ=48   IsCurved=No   GUID=c9fcf63b-5eec-42ee-b09b-b431661c3928
   Frame=34   JointI=49   JointJ=50   IsCurved=No   GUID=078f4ac8-04b9-482b-b967-71e5a0ccba29
   Frame=35   JointI=49   JointJ=51   IsCurved=No   GUID=6ad7c2af-5705-4345-9c4b-9655dbf5ebb0
   Frame=36   JointI=36   JointJ=52   IsCurved=No   GUID=b1b166c1-8249-4950-96a0-ce4a114e05f2
   Frame=37   JointI=53   JointJ=21   IsCurved=No   GUID=378fcf83-dedb-421d-84e7-2ab1954f0616
   Frame=38   JointI=53   JointJ=54   IsCurved=No   GUID=d544811d-c9ac-43eb-b955-444f2281229e
   Frame=39   JointI=55   JointJ=52   IsCurved=No   GUID=b422374c-a2b3-4b80-b32d-09ee4b767a78
   Frame=40   JointI=55   JointJ=56   IsCurved=No   GUID=84ca80b8-05e8-482b-bc8b-691563e6b172
   Frame=41   JointI=57   JointJ=58   IsCurved=No   GUID=62f8c6b0-b5de-4345-9df9-ba203f0b8121
   Frame=42   JointI=57   JointJ=59   IsCurved=No   GUID=eadd6647-ec24-40e2-a7e5-185c3c42c80d
   Frame=43   JointI=60   JointJ=61   IsCurved=No   GUID=f6fb011d-69cf-4141-a57e-93078798fc22
   Frame=44   JointI=60   JointJ=62   IsCurved=No   GUID=1ee5577b-c6a2-4d81-a0d2-8b8d833adba5
   Frame=45   JointI=63   JointJ=64   IsCurved=No   GUID=4f629473-7132-4648-b87d-fde876b1e2dd
   Frame=46   JointI=63   JointJ=8   IsCurved=No   GUID=58ce708c-0b55-4ea7-aefe-f4489f11c29a
   Frame=47   JointI=65   JointJ=66   IsCurved=No   GUID=fbe3f6fd-ddc1-4307-96f2-4c28457bb36a
   Frame=48   JointI=6   JointJ=67   IsCurved=No   GUID=e79ca931-70bd-475b-aa4a-7a271a1ece7e
   Frame=49   JointI=6   JointJ=11   IsCurved=No   GUID=badb2603-c046-4aa3-bde7-c86258cf94d7
   Frame=50   JointI=9   JointJ=7   IsCurved=No   GUID=7dc12900-c837-4ff1-a16a-eae08cf77dd4
   Frame=51   JointI=9   JointJ=14   IsCurved=No   GUID=601d92d7-a05a-4cde-bf0c-d84d8235544f
   Frame=52   JointI=12   JointJ=10   IsCurved=No   GUID=4255aff5-663e-4790-8c71-84b67ec8fe24
   Frame=53   JointI=12   JointJ=17   IsCurved=No   GUID=b3dc6ab6-0dbc-47d7-82df-001f26768064
   Frame=54   JointI=15   JointJ=13   IsCurved=No   GUID=5f2131ee-14c6-48a8-921a-4d0b19e4ddc7
   Frame=55   JointI=15   JointJ=20   IsCurved=No   GUID=8bd3eb09-6c58-4b89-a351-daae79e97b8f
   Frame=56   JointI=18   JointJ=16   IsCurved=No   GUID=b559ae6e-a462-4ffd-aeb7-39ee72b0b6e0
   Frame=57   JointI=18   JointJ=24   IsCurved=No   GUID=47bc8855-4996-4b5f-be03-3028a593f0e1
   Frame=58   JointI=65   JointJ=58   IsCurved=No   GUID=907bfb51-e39b-4353-83b3-37282293310c
   Frame=59   JointI=22   JointJ=19   IsCurved=No   GUID=9eb65148-5bad-413e-9ea6-3a97d1bdf2eb
   Frame=60   JointI=22   JointJ=27   IsCurved=No   GUID=ea5f7ba4-87d4-4fdb-b34f-3fa5bd59c6ff
   Frame=61   JointI=25   JointJ=23   IsCurved=No   GUID=4425121a-359b-4408-849b-10b0602cc238
   Frame=62   JointI=25   JointJ=30   IsCurved=No   GUID=5f03ae27-3041-4afa-85ac-cb0007ba5c1c
   Frame=63   JointI=28   JointJ=26   IsCurved=No   GUID=de782924-31ae-44f1-946f-84ef5ef47267
   Frame=64   JointI=28   JointJ=33   IsCurved=No   GUID=1628e133-336a-489f-9e16-c1e7cd354b81
   Frame=65   JointI=31   JointJ=29   IsCurved=No   GUID=a82c0994-7122-4b72-8c03-a7acd9396405
   Frame=66   JointI=31   JointJ=35   IsCurved=No   GUID=9529c789-defd-4aeb-b541-e826cfe5417d
   Frame=67   JointI=34   JointJ=32   IsCurved=No   GUID=95ab5a83-3e58-42a6-b5f7-b5beade99916
   Frame=68   JointI=34   JointJ=68   IsCurved=No   GUID=3c932ae0-01d0-416f-8b1e-fbe8aa5a3b12
   Frame=69   JointI=69   JointJ=70   IsCurved=No   GUID=795b6d49-3615-4eee-9513-6a2758588611
   Frame=70   JointI=39   JointJ=71   IsCurved=No   GUID=aa14e604-fd9f-4a42-917a-e06a8ee10801
   Frame=71   JointI=72   JointJ=71   IsCurved=No   GUID=54f1c840-2b01-44a4-83da-dfd37e4bd0dd
   Frame=72   JointI=42   JointJ=73   IsCurved=No   GUID=b15e33f0-47b6-4a45-a677-8df03c623cb5
   Frame=73   JointI=74   JointJ=73   IsCurved=No   GUID=3de0f52d-06e5-44b7-8ad5-36769715fd43
   Frame=74   JointI=45   JointJ=75   IsCurved=No   GUID=3654d105-af22-4c17-83cc-a30413f52024
   Frame=75   JointI=76   JointJ=75   IsCurved=No   GUID=f3508ff7-3bf6-4603-834b-a487f646e6d4
   Frame=76   JointI=48   JointJ=77   IsCurved=No   GUID=2ba44209-3679-448d-86bc-eaea584d862c
   Frame=77   JointI=78   JointJ=77   IsCurved=No   GUID=afda4955-b46d-44b0-96f4-5208662901da
   Frame=78   JointI=51   JointJ=79   IsCurved=No   GUID=d6bd269f-01e9-4106-8cdb-d6cc19f24b5e
   Frame=79   JointI=80   JointJ=79   IsCurved=No   GUID=ab54c362-357a-47be-aa19-a5f9d3871c05
   Frame=80   JointI=69   JointJ=61   IsCurved=No   GUID=b9632a6c-82c7-4cae-98a8-0e12cbf80d5d
   Frame=81   JointI=54   JointJ=81   IsCurved=No   GUID=ca864ba5-7560-487f-ac20-fa93bc9b0f63
   Frame=82   JointI=82   JointJ=81   IsCurved=No   GUID=0c3052e4-da44-44db-ac58-50e75d9e78f1
   Frame=83   JointI=56   JointJ=83   IsCurved=No   GUID=9d411292-b80e-499e-9f5b-f0ab40afd2d1
   Frame=84   JointI=84   JointJ=83   IsCurved=No   GUID=fcc7df00-1100-4047-a142-e294f16649e3
   Frame=85   JointI=59   JointJ=85   IsCurved=No   GUID=a200ba4c-d7a3-4411-96df-062554542062
   Frame=86   JointI=86   JointJ=85   IsCurved=No   GUID=9c5dfd0f-c818-47eb-9505-9e9eefde1200
   Frame=87   JointI=62   JointJ=87   IsCurved=No   GUID=b5456611-2e93-4021-87f5-f67b1b6b4968
   Frame=88   JointI=88   JointJ=87   IsCurved=No   GUID=d0a21ca0-a194-430b-a421-97d2d07bf71a
   Frame=89   JointI=8   JointJ=89   IsCurved=No   GUID=9607cfba-eb3a-4776-ad7c-054a5160aa19
   Frame=90   JointI=90   JointJ=89   IsCurved=No   GUID=613d4fac-5427-4abc-b9b5-bca7c823b9c6
   Frame=91   JointI=91   JointJ=92   IsCurved=No   GUID=ed278980-ebef-44be-a604-626f379b1fa7
   Frame=92   JointI=11   JointJ=93   IsCurved=No   GUID=23033951-1559-4f50-b5dc-11da1f90cefb
   Frame=93   JointI=94   JointJ=93   IsCurved=No   GUID=e527fd6b-f780-418d-820e-9b3cebeb1330
   Frame=94   JointI=14   JointJ=95   IsCurved=No   GUID=dcfb10d2-bc01-4534-a785-f13c2e2e393b
   Frame=95   JointI=96   JointJ=95   IsCurved=No   GUID=d1375d08-939c-4ef3-86cc-ecf0024fe1db
   Frame=96   JointI=17   JointJ=97   IsCurved=No   GUID=5df7bd81-d235-4d05-8f8c-47cdb0669c03
   Frame=97   JointI=98   JointJ=97   IsCurved=No   GUID=7900bef5-0ee8-4b1b-9bb4-a719ff5f3728
   Frame=98   JointI=20   JointJ=99   IsCurved=No   GUID=c032598e-5e47-49fa-8e7d-310e9c2e4a0f
   Frame=99   JointI=100   JointJ=99   IsCurved=No   GUID=553c3e17-0425-40a3-aa58-e7bb84244f24
   Frame=100   JointI=24   JointJ=101   IsCurved=No   GUID=94c98f33-f6ed-4aee-8f2a-1e6acdbdbab0
   Frame=101   JointI=102   JointJ=101   IsCurved=No   GUID=6b5a17c2-03c4-419e-85a1-de61c08dabef
   Frame=102   JointI=91   JointJ=64   IsCurved=No   GUID=32d80e90-43bf-4ebb-81e4-ad2c3a42635b
   Frame=103   JointI=27   JointJ=103   IsCurved=No   GUID=4e4e90f4-48e1-4b8e-b8c4-ead3d369db76
   Frame=104   JointI=104   JointJ=103   IsCurved=No   GUID=ca4b99a7-6497-41a8-9011-90ba2e70a738
   Frame=105   JointI=30   JointJ=105   IsCurved=No   GUID=2a122f51-c386-493f-96eb-afdbe9301597
   Frame=106   JointI=106   JointJ=105   IsCurved=No   GUID=b5925e6f-4d88-4b6f-969b-4f47adc371d4
   Frame=107   JointI=33   JointJ=107   IsCurved=No   GUID=90786fc7-58c0-4b73-82ae-11e44d94fe0d
   Frame=108   JointI=108   JointJ=107   IsCurved=No   GUID=62748204-6072-4388-93fe-456bd7a7cdd3
   Frame=109   JointI=35   JointJ=109   IsCurved=No   GUID=cfddb3bd-8e19-44e6-8bea-44ac91596c91
   Frame=110   JointI=110   JointJ=109   IsCurved=No   GUID=5a3439a4-3dca-43d9-a391-5dd72ba6e9a6
   Frame=111   JointI=68   JointJ=111   IsCurved=No   GUID=ee7f5b1c-e3ec-4659-b9d2-07e39be10f20
   Frame=112   JointI=112   JointJ=111   IsCurved=No   GUID=f3c099af-c86f-4328-bf51-00552ef429b0
   Frame=113   JointI=113   JointJ=114   IsCurved=No   GUID=01fd1090-cccc-4248-a211-61a711dbb739
   Frame=114   JointI=115   JointJ=116   IsCurved=No   GUID=6df0dabc-25ff-481f-aca6-516de7372693
   Frame=115   JointI=74   JointJ=71   IsCurved=No   GUID=94370634-afd8-42aa-a1db-34b2f325f09c
   Frame=116   JointI=68   JointJ=71   IsCurved=No   GUID=74dc82e5-53f7-4f53-a543-fa69e6fb4642
   Frame=117   JointI=76   JointJ=73   IsCurved=No   GUID=c61d3d7d-c9b1-4dd2-9887-0180644f5911
   Frame=118   JointI=39   JointJ=73   IsCurved=No   GUID=ba9ef9c2-cb27-4b89-93c4-8f90aa6a8c5f
   Frame=119   JointI=78   JointJ=75   IsCurved=No   GUID=4e8d416d-c9c6-4620-8ae6-1975ffa96b63
   Frame=120   JointI=42   JointJ=75   IsCurved=No   GUID=2ac9862c-6faf-4bb3-908a-c8902a9f2a4b
   Frame=121   JointI=80   JointJ=77   IsCurved=No   GUID=7f5deeae-95d7-4c10-9364-3cb51b920cd4
   Frame=122   JointI=45   JointJ=77   IsCurved=No   GUID=f750d321-8c71-42b7-b2cf-d7480c83862f
   Frame=123   JointI=82   JointJ=79   IsCurved=No   GUID=1a369c82-75ad-4bd5-bbc8-34b087b5ee75
   Frame=124   JointI=48   JointJ=79   IsCurved=No   GUID=82856d28-58db-485f-9caa-f97489b83f84
   Frame=125   JointI=115   JointJ=67   IsCurved=No   GUID=46aa5f7a-c934-4b5d-813a-77f7de47eb2e
   Frame=126   JointI=84   JointJ=81   IsCurved=No   GUID=3875e2ce-a64c-45c7-afe0-ccce5652d7b1
   Frame=127   JointI=51   JointJ=81   IsCurved=No   GUID=0440e21a-8143-44e2-8a13-7f49fd9fdc88
   Frame=128   JointI=86   JointJ=83   IsCurved=No   GUID=dcab524a-32a5-4a0e-a7b6-ae2a6e3784bf
   Frame=129   JointI=54   JointJ=83   IsCurved=No   GUID=d19124a7-c633-4cd9-b563-c56ac92a1089
   Frame=130   JointI=88   JointJ=85   IsCurved=No   GUID=0910f921-d50b-477c-b91a-e86730e3054e
   Frame=131   JointI=56   JointJ=85   IsCurved=No   GUID=1336ad9f-7788-4dca-917a-75654d420158
   Frame=132   JointI=90   JointJ=87   IsCurved=No   GUID=23b0fff5-b27b-4d78-9c1f-2c0fe7578769
   Frame=133   JointI=59   JointJ=87   IsCurved=No   GUID=5994488a-1278-4e79-a098-c9e20f2ce3b4
   Frame=134   JointI=94   JointJ=89   IsCurved=No   GUID=31c6342c-ac1a-451e-87cf-a15e851b17a7
   Frame=135   JointI=62   JointJ=89   IsCurved=No   GUID=45ba077a-bc6b-42a5-9ad5-b92e62133cd3
   Frame=136   JointI=117   JointJ=118   IsCurved=No   GUID=23159372-315d-4ed5-84c4-3a34c654e0d7
   Frame=137   JointI=96   JointJ=93   IsCurved=No   GUID=2108f912-2a68-43ad-b24e-37b6e1b2884c
   Frame=138   JointI=8   JointJ=93   IsCurved=No   GUID=be922641-9160-476c-892f-d2cbf9e7acfd
   Frame=139   JointI=98   JointJ=95   IsCurved=No   GUID=a89eca43-7ed6-4076-a579-f3494dbf4651
   Frame=140   JointI=11   JointJ=95   IsCurved=No   GUID=e5cc4955-f97a-4a76-9f5c-a5aa0e7e14ef
   Frame=141   JointI=100   JointJ=97   IsCurved=No   GUID=ccdd6bbb-0c3d-42f0-89e4-b148518bca10
   Frame=142   JointI=14   JointJ=97   IsCurved=No   GUID=ed39a305-6dfa-4327-9ef9-90f0831666a8
   Frame=143   JointI=102   JointJ=99   IsCurved=No   GUID=5913b0ee-ac20-43bd-90ca-ff92660f4c90
   Frame=144   JointI=17   JointJ=99   IsCurved=No   GUID=954139fc-45e6-4395-a1cf-0d3879fcfac3
   Frame=145   JointI=104   JointJ=101   IsCurved=No   GUID=6a70b640-69b8-4aba-ac86-2eef6a4c5f12
   Frame=146   JointI=20   JointJ=101   IsCurved=No   GUID=e18b86ed-d06f-4f3e-a780-db96aba25876
   Frame=147   JointI=117   JointJ=7   IsCurved=No   GUID=5d246eaf-51ca-442b-8646-31f550edeb2e
   Frame=148   JointI=106   JointJ=103   IsCurved=No   GUID=e6a65ebf-8c7d-46d2-890f-1c11e3222ecf
   Frame=149   JointI=24   JointJ=103   IsCurved=No   GUID=4482483d-369c-45ea-9476-f847e82f54b8
   Frame=150   JointI=108   JointJ=105   IsCurved=No   GUID=8b3334e4-78d7-496b-b253-a4f4062919e8
   Frame=151   JointI=27   JointJ=105   IsCurved=No   GUID=3c06afae-c34b-4ea8-b0ae-2e0c371b70f7
   Frame=152   JointI=110   JointJ=107   IsCurved=No   GUID=901df900-b3fa-4066-8804-5a43f9d04949
   Frame=153   JointI=30   JointJ=107   IsCurved=No   GUID=5abebd1d-e19b-4ba6-bdac-c0e8fb6a4e45
   Frame=154   JointI=112   JointJ=109   IsCurved=No   GUID=a4ae22a3-119a-40f8-93ee-67bc64859932
   Frame=155   JointI=33   JointJ=109   IsCurved=No   GUID=4687ff70-585b-4933-b627-f48656243960
   Frame=156   JointI=72   JointJ=111   IsCurved=No   GUID=b887f743-64ed-4b3b-a055-4d509e42d17c
   Frame=157   JointI=119   JointJ=120   IsCurved=No   GUID=92c79a0c-3714-4eaa-8d41-9bbb9d1c39d6
   Frame=158   JointI=121   JointJ=122   IsCurved=No   GUID=554bb94d-5983-4b8e-b014-163c3b530bcd
   Frame=159   JointI=123   JointJ=119   IsCurved=No   GUID=3697decb-04d7-4a9b-87db-16c9c92d96e8
   Frame=160   JointI=124   JointJ=123   IsCurved=No   GUID=c0ccb42a-64ef-463c-8aa2-dd3303d4b95d
   Frame=161   JointI=125   JointJ=124   IsCurved=No   GUID=fcf5e5e1-147b-4c6c-a77a-2d596f027d81
   Frame=162   JointI=126   JointJ=125   IsCurved=No   GUID=d12e0158-bc49-41fd-8f59-5da435d640e4
   Frame=163   JointI=1   JointJ=126   IsCurved=No   GUID=25339938-15b1-4736-9ce3-21f52c9e3e1d
   Frame=164   JointI=113   JointJ=1   IsCurved=No   GUID=91960f92-270a-4a52-a8e6-300364add4b5
   Frame=165   JointI=127   JointJ=113   IsCurved=No   GUID=4834a7ec-6f45-4b33-9870-e8fa70b32a0d
   Frame=166   JointI=128   JointJ=127   IsCurved=No   GUID=9421239e-f2b8-4928-9f7f-4dbb2fe94eab
   Frame=167   JointI=129   JointJ=128   IsCurved=No   GUID=be01e250-af58-4ec3-91a4-83b965afcccc
   Frame=168   JointI=4   JointJ=129   IsCurved=No   GUID=37da1f8b-926c-45a7-94cc-5cab67d66748
   Frame=169   JointI=121   JointJ=10   IsCurved=No   GUID=16146f1f-3a31-4a4c-b091-5895feaa5d3b
   Frame=170   JointI=36   JointJ=4   IsCurved=No   GUID=68926fed-23d2-430b-b9f2-4aa75dc19f58
   Frame=171   JointI=65   JointJ=36   IsCurved=No   GUID=223cb143-42fa-45a6-a80e-d4ad5fa5cfc8
   Frame=172   JointI=69   JointJ=65   IsCurved=No   GUID=fe1024ab-4b81-4249-8ffb-8e638c85b5f9
   Frame=173   JointI=91   JointJ=69   IsCurved=No   GUID=cbf1bc77-aafa-442c-a1b7-14ead6853ed2
   Frame=174   JointI=115   JointJ=91   IsCurved=No   GUID=e9b86a20-e761-42f0-8fc3-d26ab6e2ddbb
   Frame=175   JointI=117   JointJ=115   IsCurved=No   GUID=de8129e8-1bd6-4bd1-9f0a-84a9f86aa589
   Frame=176   JointI=121   JointJ=117   IsCurved=No   GUID=4f9e676a-257d-4191-9f42-c2ea27d9c3dc
   Frame=177   JointI=130   JointJ=121   IsCurved=No   GUID=9f9b02a7-79e4-465e-a3ab-62676e142b64
   Frame=178   JointI=120   JointJ=130   IsCurved=No   GUID=3faebae4-e7e3-4419-900e-bc85556cf24c
   Frame=179   JointI=22   JointJ=18   IsCurved=No   GUID=e0ebcacd-d2e2-4c68-9a74-79fea08b1837
   Frame=180   JointI=130   JointJ=131   IsCurved=No   GUID=918d0e76-41fa-4915-83de-d9a91251a955
   Frame=181   JointI=25   JointJ=22   IsCurved=No   GUID=14d1c12e-4fc0-4547-a117-b59d275967b7
   Frame=182   JointI=28   JointJ=25   IsCurved=No   GUID=93cbd626-a293-4a9f-8b5d-a547e18b5d0e
   Frame=183   JointI=31   JointJ=28   IsCurved=No   GUID=f22e6ec6-e867-48fa-a73e-0b390c889634
   Frame=184   JointI=34   JointJ=31   IsCurved=No   GUID=361cec9e-3529-4468-a8c8-e7dfecf8ba62
   Frame=185   JointI=38   JointJ=34   IsCurved=No   GUID=cd3e6738-7c2b-486e-86e4-071375bdd82b
   Frame=186   JointI=40   JointJ=38   IsCurved=No   GUID=6ff36bb5-162e-401a-8a31-879213d340c5
   Frame=187   JointI=43   JointJ=40   IsCurved=No   GUID=fc454618-023c-47a6-b5f0-b5e129912e3f
   Frame=188   JointI=46   JointJ=43   IsCurved=No   GUID=5eff8685-0004-4c91-8b48-ed9441dffd65
   Frame=189   JointI=49   JointJ=46   IsCurved=No   GUID=73374e8a-aa19-4bb7-b340-87222b9c7c0d
   Frame=190   JointI=53   JointJ=49   IsCurved=No   GUID=538042a4-1f04-4a5c-9de9-71ef4eb0172d
   Frame=191   JointI=130   JointJ=13   IsCurved=No   GUID=71c0dc33-8392-41e8-99dd-60ac43874778
   Frame=192   JointI=55   JointJ=53   IsCurved=No   GUID=3e6b1b96-ca87-4035-b83f-cca40c701fc8
   Frame=193   JointI=57   JointJ=55   IsCurved=No   GUID=fc45408a-5fe9-429b-92d9-42096474d859
   Frame=194   JointI=60   JointJ=57   IsCurved=No   GUID=589b5c6f-fc96-4838-a006-c39df32c5585
   Frame=195   JointI=63   JointJ=60   IsCurved=No   GUID=8148b6ce-71aa-48b0-b842-0b03bf846de9
   Frame=196   JointI=6   JointJ=63   IsCurved=No   GUID=1310cc04-6032-45cf-af30-590be61aee73
   Frame=197   JointI=9   JointJ=6   IsCurved=No   GUID=1e2d87da-5bda-4f3d-9fb4-b43b253faeda
   Frame=198   JointI=12   JointJ=9   IsCurved=No   GUID=c625f3ba-390c-4dc7-b4f9-a07ccad08837
   Frame=199   JointI=15   JointJ=12   IsCurved=No   GUID=5f83bf69-0799-4ab3-bf1b-71b29caefeab
   Frame=200   JointI=18   JointJ=15   IsCurved=No   GUID=af20e007-0520-41b4-9d11-f5df25f9fd7a
   Frame=201   JointI=19   JointJ=16   IsCurved=No   GUID=638559a2-8322-4e5b-9000-00c6046139bc
   Frame=202   JointI=120   JointJ=132   IsCurved=No   GUID=34acfec4-4ff3-46f1-bdba-525e80c72cd9
   Frame=203   JointI=23   JointJ=19   IsCurved=No   GUID=8b3803d4-39c2-40bd-837b-3de9d11dbb00
   Frame=204   JointI=26   JointJ=23   IsCurved=No   GUID=ea4e4277-ef3b-4c8f-9a5c-db7df004b5e5
   Frame=205   JointI=29   JointJ=26   IsCurved=No   GUID=d76c2a10-73cc-4a8a-af01-da0304cc2f5a
   Frame=206   JointI=32   JointJ=29   IsCurved=No   GUID=35c5f84c-f489-4fba-bdd7-b4e1ad362ce4
   Frame=207   JointI=3   JointJ=32   IsCurved=No   GUID=86e796f7-6bdd-47b3-943e-28f546b47b37
   Frame=208   JointI=41   JointJ=3   IsCurved=No   GUID=8d8da8b4-0a71-4667-9a76-e1fd84bd801e
   Frame=209   JointI=44   JointJ=41   IsCurved=No   GUID=c6cef5ea-d309-48e8-8000-6f72b0112fde
   Frame=210   JointI=47   JointJ=44   IsCurved=No   GUID=0e02887b-2a0d-4095-b089-94c70a1124be
   Frame=211   JointI=50   JointJ=47   IsCurved=No   GUID=57b01a7c-bc41-40c0-9fb4-551a6ba1a3a7
   Frame=212   JointI=21   JointJ=50   IsCurved=No   GUID=4d4812d8-ba9f-4fc1-a3b7-5d65cdde0a71
   Frame=213   JointI=120   JointJ=16   IsCurved=No   GUID=daf6458d-8545-400f-b6e1-b65bca1d404a
   Frame=214   JointI=52   JointJ=21   IsCurved=No   GUID=0161d9f3-c5cf-4fb1-8dde-d768c26b67d3
   Frame=215   JointI=58   JointJ=52   IsCurved=No   GUID=0ff17308-cc24-45eb-aefe-8f2c17548634
   Frame=216   JointI=61   JointJ=58   IsCurved=No   GUID=44791555-14f1-4aa9-a185-863beceb8fb4
   Frame=217   JointI=64   JointJ=61   IsCurved=No   GUID=d36e4d4f-8df6-438b-95bd-df63d3c09d8b
   Frame=218   JointI=67   JointJ=64   IsCurved=No   GUID=73edbd1f-6c4a-4714-af91-bd91cef8875c
   Frame=219   JointI=7   JointJ=67   IsCurved=No   GUID=fab435db-3aae-4668-a91b-1e9573e0fede
   Frame=220   JointI=10   JointJ=7   IsCurved=No   GUID=6a63174c-1f5f-437f-8492-6af6dd8214be
   Frame=221   JointI=13   JointJ=10   IsCurved=No   GUID=678ff851-bb75-485f-a682-43429807ee7a
   Frame=222   JointI=16   JointJ=13   IsCurved=No   GUID=d38d41dc-44f2-40a6-8908-2e2360ec8aef
   Frame=223   JointI=132   JointJ=131   IsCurved=No   GUID=3c9ef544-8a77-4145-9a03-1915d6f3b64c
   Frame=224   JointI=113   JointJ=41   IsCurved=No   GUID=0e465fd3-eee4-455d-a760-332acbf7352d
   Frame=225   JointI=119   JointJ=133   IsCurved=No   GUID=49e4e5de-9b78-480b-9c47-007298a8e50c
   Frame=226   JointI=133   JointJ=132   IsCurved=No   GUID=64a4a2c8-8d39-4481-a30a-90d013806989
   Frame=227   JointI=134   JointJ=133   IsCurved=No   GUID=1fcc00fc-2ea0-4697-a548-6d4df3a2ccf4
   Frame=228   JointI=135   JointJ=134   IsCurved=No   GUID=e5036548-5cce-4b5b-b40c-9972f6bc9dfe
   Frame=229   JointI=136   JointJ=135   IsCurved=No   GUID=1d03e0e7-9b64-4078-ac21-ef1698f92aaf
   Frame=230   JointI=137   JointJ=136   IsCurved=No   GUID=1085f007-993a-4a50-ae5f-907b7df2ef45
   Frame=231   JointI=2   JointJ=137   IsCurved=No   GUID=c56e21d9-22e1-4675-af1d-ffe780aee75a
   Frame=232   JointI=114   JointJ=2   IsCurved=No   GUID=c1e9200c-6f6b-4cf0-a9bc-a7a64f776c64
   Frame=233   JointI=138   JointJ=114   IsCurved=No   GUID=01b8f80d-de00-436e-994f-a928d48b94ce
   Frame=234   JointI=139   JointJ=138   IsCurved=No   GUID=0a721e89-4801-4d21-97d5-4f215be24dd4
   Frame=235   JointI=140   JointJ=139   IsCurved=No   GUID=fd25c8a1-6e33-4799-8c9c-1dbae9f5191e
   Frame=236   JointI=119   JointJ=19   IsCurved=No   GUID=1fb35b5c-e3d7-40e0-a29c-0900f5ca94ae
   Frame=237   JointI=5   JointJ=140   IsCurved=No   GUID=24a59662-877e-4113-affa-ee0044f96683
   Frame=238   JointI=37   JointJ=5   IsCurved=No   GUID=c39ddfc0-2ac9-4c99-b93a-f02c496b579c
   Frame=239   JointI=66   JointJ=37   IsCurved=No   GUID=5337d09a-3f02-4fe6-a807-b57034b1b113
   Frame=240   JointI=70   JointJ=66   IsCurved=No   GUID=f66ca7e7-6012-4144-a4ca-4b0f43209c1e
   Frame=241   JointI=92   JointJ=70   IsCurved=No   GUID=bc544806-b27c-43e7-a01c-532f9446a375
   Frame=242   JointI=116   JointJ=92   IsCurved=No   GUID=86f0cf3c-a851-4983-84b3-4d0a39d9e7d4
   Frame=243   JointI=118   JointJ=116   IsCurved=No   GUID=e0158910-7cff-4ad8-8ffe-fb524043ec52
   Frame=244   JointI=122   JointJ=118   IsCurved=No   GUID=c41bef33-ec2f-44d2-8ada-fc0d5258e492
   Frame=245   JointI=131   JointJ=122   IsCurved=No   GUID=33a044bc-3808-4181-83e0-dcc124fe58ef
   Frame=246   JointI=24   JointJ=20   IsCurved=No   GUID=01d26b73-df23-4b92-b859-00d34584b0d1
   Frame=247   JointI=123   JointJ=134   IsCurved=No   GUID=8adc4c95-e044-4241-bde0-c76fad42c3cd
   Frame=248   JointI=27   JointJ=24   IsCurved=No   GUID=a571b216-32b3-4ceb-b288-ee5e791293a0
   Frame=249   JointI=30   JointJ=27   IsCurved=No   GUID=d879dcb7-1420-4dba-899b-a8a16ef48ca7
   Frame=250   JointI=33   JointJ=30   IsCurved=No   GUID=c3c3a509-1fbb-46d8-a6c4-4fee786561ff
   Frame=251   JointI=35   JointJ=33   IsCurved=No   GUID=daf68e3a-bcf9-49a2-984b-6be63bef83cc
   Frame=252   JointI=68   JointJ=35   IsCurved=No   GUID=568800ed-ac85-4026-9ba4-9d95b7c2396a
   Frame=253   JointI=39   JointJ=68   IsCurved=No   GUID=ef71f020-3494-4363-aba8-f8f557b9c085
   Frame=254   JointI=42   JointJ=39   IsCurved=No   GUID=dc3cbe5e-683a-4fa1-ab48-58c81edb6f14
   Frame=255   JointI=45   JointJ=42   IsCurved=No   GUID=286bda71-6c5c-4dc3-8977-6abcc66b598f
   Frame=256   JointI=48   JointJ=45   IsCurved=No   GUID=bb32affe-b205-42ec-ac2e-17a7040eeb93
   Frame=257   JointI=51   JointJ=48   IsCurved=No   GUID=1e7988d3-6816-42a2-bc82-c00a5abdd91e
   Frame=258   JointI=123   JointJ=23   IsCurved=No   GUID=c76f4617-cc97-4f25-81d1-2523dbcae494
   Frame=259   JointI=54   JointJ=51   IsCurved=No   GUID=3fb7c248-42c3-4582-87e3-91f04a243073
   Frame=260   JointI=56   JointJ=54   IsCurved=No   GUID=14467c8b-7427-416a-ac13-cf5bf5f9c328
   Frame=261   JointI=59   JointJ=56   IsCurved=No   GUID=9dc15978-f9c1-4d01-b38a-c1831a86da7d
   Frame=262   JointI=62   JointJ=59   IsCurved=No   GUID=741bce9b-1124-4c3c-b750-b82c1d04adea
   Frame=263   JointI=8   JointJ=62   IsCurved=No   GUID=0457e44a-660d-48c4-8222-e419d5d56b74
   Frame=264   JointI=11   JointJ=8   IsCurved=No   GUID=d2c4b030-82e8-4b80-b15c-92665b6e573b
   Frame=265   JointI=14   JointJ=11   IsCurved=No   GUID=039057d5-b759-4297-8dab-e2297d86b0c1
   Frame=266   JointI=17   JointJ=14   IsCurved=No   GUID=ce5770e2-bac9-41f5-bd34-8486919a2b53
   Frame=267   JointI=20   JointJ=17   IsCurved=No   GUID=a9dd0df6-c06e-493f-bb18-4ce4c2be6077
   Frame=268   JointI=104   JointJ=102   IsCurved=No   GUID=3e823057-6d8d-4f4d-9e12-99fd469a2e0d
   Frame=269   JointI=124   JointJ=135   IsCurved=No   GUID=ecae7177-7b9b-42f8-9b88-a122881bb089
   Frame=270   JointI=106   JointJ=104   IsCurved=No   GUID=2abae03d-c477-411d-bc02-32f2dd5ffca1
   Frame=271   JointI=108   JointJ=106   IsCurved=No   GUID=2793a573-4a51-4625-bcd7-cdf8c3e82e80
   Frame=272   JointI=110   JointJ=108   IsCurved=No   GUID=660c4b15-98e7-4647-a6aa-97f07fb65dfe
   Frame=273   JointI=112   JointJ=110   IsCurved=No   GUID=eaefeacf-de1c-4114-8b19-051184a2ce8b
   Frame=274   JointI=72   JointJ=112   IsCurved=No   GUID=196c4b7b-2975-4e91-a846-f9864b1ab3d5
   Frame=275   JointI=74   JointJ=72   IsCurved=No   GUID=0966e4b9-e528-4bc6-8c4a-44a73f8cb88d
   Frame=276   JointI=76   JointJ=74   IsCurved=No   GUID=155311db-6c8a-40a1-a790-b0acbf6b56cd
   Frame=277   JointI=78   JointJ=76   IsCurved=No   GUID=1baa8b17-17ce-4181-b4aa-dad5a951533b
   Frame=278   JointI=80   JointJ=78   IsCurved=No   GUID=a5a85e40-96da-4b04-85b6-d386788db278
   Frame=279   JointI=82   JointJ=80   IsCurved=No   GUID=1573c24a-8344-43a6-910b-adbe452b547c
   Frame=280   JointI=124   JointJ=26   IsCurved=No   GUID=e1bc9813-2a4b-410c-98d7-ecf3fa30257f
   Frame=282   JointI=84   JointJ=82   IsCurved=No   GUID=1e462e12-574a-49fe-9a34-af332143cfac
   Frame=283   JointI=86   JointJ=84   IsCurved=No   GUID=f32b0b6b-bbd6-464d-a5ab-2a08e129f966
   Frame=284   JointI=88   JointJ=86   IsCurved=No   GUID=fdf9fc91-eee1-433a-a2b9-c6f7fee16ab2
   Frame=285   JointI=90   JointJ=88   IsCurved=No   GUID=efd2dc6f-4dbb-4a3c-9289-6ecadfad8d08
   Frame=286   JointI=94   JointJ=90   IsCurved=No   GUID=fffa51f6-31ea-4225-a81f-5b5764f8fb2e
   Frame=287   JointI=96   JointJ=94   IsCurved=No   GUID=2a8e74da-55a0-4cde-99b8-132947ace0e9
   Frame=288   JointI=98   JointJ=96   IsCurved=No   GUID=0174e8d9-d55b-42fe-9590-25c4837e892e
   Frame=289   JointI=100   JointJ=98   IsCurved=No   GUID=94ea0a83-33ec-4d56-9fa9-e397dca4ace9
   Frame=290   JointI=102   JointJ=100   IsCurved=No   GUID=621f9b94-e32e-424d-b93f-870bae8eadca
   Frame=291   JointI=125   JointJ=136   IsCurved=No   GUID=7e81bf0a-4de9-476a-a38d-3ffa24d99f42
   Frame=292   JointI=103   JointJ=101   IsCurved=No   GUID=c9553d5a-3789-43e2-966d-8a1943a0b649
   Frame=293   JointI=105   JointJ=103   IsCurved=No   GUID=8beffb97-c63d-400a-9496-29471adab2d1
   Frame=294   JointI=107   JointJ=105   IsCurved=No   GUID=dd2ba64d-184b-4b91-9151-d6d46e9d74b0
   Frame=295   JointI=109   JointJ=107   IsCurved=No   GUID=478b8c11-ee16-4d00-b450-57edc55a93a3
   Frame=296   JointI=111   JointJ=109   IsCurved=No   GUID=8cd8990a-fe56-4f85-adb9-3e0538385991
   Frame=297   JointI=71   JointJ=111   IsCurved=No   GUID=9f44ecd2-1dc0-44c5-a839-55964b673779
   Frame=298   JointI=73   JointJ=71   IsCurved=No   GUID=a21fe662-6b05-443a-97d5-0d49813fa5de
   Frame=299   JointI=75   JointJ=73   IsCurved=No   GUID=62b806f4-874c-41d5-804e-30e88cf6fbe2
   Frame=300   JointI=77   JointJ=75   IsCurved=No   GUID=0f21dafb-0e44-4b9b-8777-5b7654a6e602
   Frame=301   JointI=79   JointJ=77   IsCurved=No   GUID=ee1005c9-3f14-444b-983b-716f0c34e05a
   Frame=302   JointI=125   JointJ=29   IsCurved=No   GUID=fc4553f9-fd59-45f3-bf16-05d2fe8400fa
   Frame=303   JointI=81   JointJ=79   IsCurved=No   GUID=b03e65ca-849b-449c-817a-16d5e2bd7644
   Frame=304   JointI=83   JointJ=81   IsCurved=No   GUID=ec0a293d-e041-4cc1-bad7-d992a9111d2a
   Frame=305   JointI=85   JointJ=83   IsCurved=No   GUID=6f6b836d-4dc2-48a2-b4b7-6fded1176d84
   Frame=306   JointI=87   JointJ=85   IsCurved=No   GUID=10f85002-2e4b-4bda-893c-a106274e5ef3
   Frame=307   JointI=89   JointJ=87   IsCurved=No   GUID=cee19e6d-2392-4af6-b0c7-48063c102e70
   Frame=308   JointI=93   JointJ=89   IsCurved=No   GUID=6421816c-f1de-41a2-ab32-c9c870330c58
   Frame=309   JointI=95   JointJ=93   IsCurved=No   GUID=878f86f9-7cc3-4e4b-8c0a-d0f0196e7791
   Frame=310   JointI=97   JointJ=95   IsCurved=No   GUID=17402e80-d4ab-4aa4-80b7-07f1f5e9e9fa
   Frame=311   JointI=99   JointJ=97   IsCurved=No   GUID=e9a918a0-7b6f-43f6-a929-3e34146ad9dc
   Frame=312   JointI=101   JointJ=99   IsCurved=No   GUID=822eb4fc-95e9-4fc2-a78e-165051ba9dda
   Frame=313   JointI=126   JointJ=137   IsCurved=No   GUID=e0e418da-7392-4fb1-be4c-1465be6dc4cc
   Frame=314   JointI=35   JointJ=111   IsCurved=No   GUID=99ad6ee0-ba79-47aa-9c11-21d65c3e003c
   Frame=315   JointI=126   JointJ=32   IsCurved=No   GUID=e7ef3af5-88ac-4879-b0a6-4bfb61bca8ec
   Frame=316   JointI=127   JointJ=138   IsCurved=No   GUID=e2474989-06ba-4927-b202-5531ea09b0f8
   Frame=317   JointI=1   JointJ=137   IsCurved=No   GUID=2249bda5-25de-4311-86b3-70b4d164007b
   Frame=318   JointI=1   JointJ=41   IsCurved=No   GUID=2456a294-af91-4f63-8b3e-6a452ca3afbb
   Frame=319   JointI=113   JointJ=2   IsCurved=No   GUID=89bf1bc6-85b4-40fb-b2f5-3e07e61d46eb
   Frame=320   JointI=113   JointJ=44   IsCurved=No   GUID=65a5f3ca-62ac-442f-9938-b841dcf533a8
   Frame=321   JointI=127   JointJ=114   IsCurved=No   GUID=2f4cdf2d-5222-43c9-b7bd-b51e6b7eff52
   Frame=322   JointI=127   JointJ=47   IsCurved=No   GUID=5f166930-ca1e-42d0-8365-27f76759e199
   Frame=323   JointI=128   JointJ=138   IsCurved=No   GUID=a8e9389d-c4bd-4617-b412-acc69278c76c
   Frame=324   JointI=128   JointJ=50   IsCurved=No   GUID=f838a703-ac6b-4d47-901d-927b38602c76
   Frame=325   JointI=129   JointJ=139   IsCurved=No   GUID=a78210ac-9ac8-4c8e-9043-762e1960ceff
   Frame=326   JointI=129   JointJ=21   IsCurved=No   GUID=cf6c58a1-5cd2-454e-afbe-51b4f9cd59ad
   Frame=327   JointI=127   JointJ=44   IsCurved=No   GUID=09e10026-749c-4385-b729-2a4327cd78e3
   Frame=328   JointI=4   JointJ=140   IsCurved=No   GUID=de959fd3-ad60-4316-a052-273bf5235128
   Frame=329   JointI=4   JointJ=52   IsCurved=No   GUID=04748725-9b70-4335-b4c7-65952b3806cf
   Frame=330   JointI=36   JointJ=5   IsCurved=No   GUID=d4a93fc5-cc47-4a7c-8dce-c641e078d039
   Frame=331   JointI=36   JointJ=58   IsCurved=No   GUID=d63a268c-5484-4587-b1af-1068983afb48
   Frame=332   JointI=65   JointJ=37   IsCurved=No   GUID=86f7ab22-6467-41d6-b153-9132ebf122e5
   Frame=333   JointI=65   JointJ=61   IsCurved=No   GUID=222ce0d1-9a92-42a3-b95e-601c954de013
   Frame=334   JointI=69   JointJ=66   IsCurved=No   GUID=d2633e8f-9d30-497b-a74c-7cc8445567c5
   Frame=335   JointI=69   JointJ=64   IsCurved=No   GUID=353791f1-3340-41f4-bd1d-2e9874ce10a3
   Frame=336   JointI=91   JointJ=70   IsCurved=No   GUID=d60b9444-e976-41c9-8837-fbed5b484ec6
   Frame=337   JointI=91   JointJ=67   IsCurved=No   GUID=ce9c5883-8ba1-48e4-a1b6-36e4f92667d0
   Frame=338   JointI=128   JointJ=139   IsCurved=No   GUID=06711876-bc26-49eb-9c13-df9282be4087
   Frame=339   JointI=115   JointJ=92   IsCurved=No   GUID=da7126b1-b0c1-4856-8a5b-533d1492657e
   Frame=340   JointI=115   JointJ=7   IsCurved=No   GUID=48d40cfe-8f9c-44f4-a7a8-62f3b9f95f33
   Frame=341   JointI=117   JointJ=116   IsCurved=No   GUID=6d675cdd-5212-4cf9-8f62-685ee0ae0ce2
   Frame=342   JointI=117   JointJ=10   IsCurved=No   GUID=65306903-51cc-4389-96c2-22e5949a5fdd
   Frame=343   JointI=121   JointJ=118   IsCurved=No   GUID=609da659-a41f-42dd-b2c8-bbd7aea42ebf
   Frame=344   JointI=121   JointJ=13   IsCurved=No   GUID=22594673-2c64-4161-9be1-645b1071dc57
   Frame=345   JointI=130   JointJ=122   IsCurved=No   GUID=1cc3f182-7053-46b2-b87e-87386be73339
   Frame=346   JointI=130   JointJ=16   IsCurved=No   GUID=cd1b5a1a-536a-4cb6-8568-659df47bfab9
   Frame=347   JointI=120   JointJ=131   IsCurved=No   GUID=4c718801-a24d-405b-9f27-1ab94a45d4e3
   Frame=348   JointI=120   JointJ=19   IsCurved=No   GUID=2a8636e9-84d2-4475-9b9e-8bd27a4205c0
   Frame=349   JointI=128   JointJ=47   IsCurved=No   GUID=985ca655-abf3-426f-8282-a11ddeba687a
   Frame=350   JointI=119   JointJ=132   IsCurved=No   GUID=8c1f6224-4796-405b-9789-df1f4162b41b
   Frame=351   JointI=119   JointJ=23   IsCurved=No   GUID=06a5fe68-37e0-4403-abf5-d2603cdcc90c
   Frame=352   JointI=123   JointJ=133   IsCurved=No   GUID=9f291ca1-337e-42d2-a56a-742c167221cb
   Frame=353   JointI=123   JointJ=26   IsCurved=No   GUID=4f9baf2f-7377-471e-9404-5c97fc1fae92
   Frame=354   JointI=124   JointJ=134   IsCurved=No   GUID=11c71049-9722-456f-9731-56e0fcd9e4a8
   Frame=355   JointI=124   JointJ=29   IsCurved=No   GUID=c484312c-3df3-474c-b570-085a67d9c639
   Frame=356   JointI=125   JointJ=135   IsCurved=No   GUID=8074cab5-848e-4296-8c44-41fa2bf9e3b3
   Frame=357   JointI=125   JointJ=32   IsCurved=No   GUID=163607be-44d8-489f-904f-f36522d9efcf
   Frame=358   JointI=126   JointJ=136   IsCurved=No   GUID=62fa01d8-6945-4d96-910a-72c5c496e3e6
   Frame=359   JointI=126   JointJ=3   IsCurved=No   GUID=bc9e850a-503a-4be9-be88-ebec36e19096
   Frame=360   JointI=129   JointJ=140   IsCurved=No   GUID=7079e43a-22f7-464f-a87c-c0700aa449ad
   Frame=361   JointI=38   JointJ=41   IsCurved=No   GUID=8598db00-eaa8-488e-a722-add71ddacec2
   Frame=362   JointI=38   JointJ=68   IsCurved=No   GUID=0a24e974-71aa-44e9-8a6e-d4b36c601fbd
   Frame=363   JointI=40   JointJ=44   IsCurved=No   GUID=f24e9f2e-43ed-4ce6-8a31-cda0cc308f7b
   Frame=364   JointI=40   JointJ=39   IsCurved=No   GUID=2eb33e89-1218-4d51-a141-6cb6f0db1b93
   Frame=365   JointI=43   JointJ=47   IsCurved=No   GUID=812b06d8-4132-4b8c-8964-e1bb83467a56
   Frame=366   JointI=43   JointJ=42   IsCurved=No   GUID=4691f47a-6225-498f-9c2f-1a8b2606ad57
   Frame=367   JointI=46   JointJ=50   IsCurved=No   GUID=718dbf6e-83b4-4162-a799-c665b6c47a4d
   Frame=368   JointI=46   JointJ=45   IsCurved=No   GUID=dd8bb532-487e-4843-a2bd-f385182060a0
   Frame=369   JointI=49   JointJ=21   IsCurved=No   GUID=922a2ad8-e268-42ab-836f-b975a3f3482e
   Frame=370   JointI=49   JointJ=48   IsCurved=No   GUID=07ecdb6f-c31b-4de9-ac26-e385ef365bf1
   Frame=371   JointI=129   JointJ=50   IsCurved=No   GUID=0068e5f6-b271-4f5b-8f93-2ba1f765705f
   Frame=372   JointI=53   JointJ=52   IsCurved=No   GUID=ff1bef86-e3dd-43db-8772-d069ca8ba117
   Frame=373   JointI=53   JointJ=51   IsCurved=No   GUID=2e58149c-8c1b-4eb2-b26b-3421dba136db
   Frame=374   JointI=55   JointJ=58   IsCurved=No   GUID=25b02e3b-3697-4f77-a91c-7ca11fcb56e2
   Frame=375   JointI=55   JointJ=54   IsCurved=No   GUID=4b9c6682-f43e-4125-a656-c87219e5153c
   Frame=376   JointI=57   JointJ=61   IsCurved=No   GUID=4c188634-4e27-4ef2-9431-0ba7ce4affe2
   Frame=377   JointI=57   JointJ=56   IsCurved=No   GUID=802c85c5-3d79-4f41-ac85-edb571be7649
   Frame=378   JointI=60   JointJ=64   IsCurved=No   GUID=65cd9acc-a30d-4847-badd-635655e8917e
   Frame=379   JointI=60   JointJ=59   IsCurved=No   GUID=1b683f5b-e968-4f62-a575-837764e86872
   Frame=380   JointI=63   JointJ=67   IsCurved=No   GUID=a90eae22-6d3d-4eb8-85b2-b436b1d8fd4d
   Frame=381   JointI=63   JointJ=62   IsCurved=No   GUID=be680860-f780-4de8-8b53-ffee71808e3a
 
TABLE:  "COORDINATE SYSTEMS"
   Name=GLOBAL   Type=Cartesian   X=0   Y=0   Z=0   AboutZ=0   AboutY=0   AboutX=0
 
TABLE:  "DATABASE DOCUMENTATION"
 
TABLE:  "DATABASE FORMAT TYPES"
   UnitsCurr=Yes   OverrideE=No
 
TABLE:  "FRAME AUTO MESH ASSIGNMENTS"
   Frame=1   AutoMesh=Yes   AtJoints=Yes   AtFrames=No   NumSegments=0   MaxLength=0   MaxDegrees=0
   Frame=2   AutoMesh=Yes   AtJoints=Yes   AtFrames=No   NumSegments=0   MaxLength=0   MaxDegrees=0
   Frame=3   AutoMesh=Yes   AtJoints=Yes   AtFrames=No   NumSegments=0   MaxLength=0   MaxDegrees=0
   Frame=4   AutoMesh=Yes   AtJoints=Yes   AtFrames=No   NumSegments=0   MaxLength=0   MaxDegrees=0
   Frame=5   AutoMesh=Yes   AtJoints=Yes   AtFrames=No   NumSegments=0   MaxLength=0   MaxDegrees=0
   Frame=6   AutoMesh=Yes   AtJoints=Yes   AtFrames=No   NumSegments=0   MaxLength=0   MaxDegrees=0
   Frame=7   AutoMesh=Yes   AtJoints=Yes   AtFrames=No   NumSegments=0   MaxLength=0   MaxDegrees=0
   Frame=8   AutoMesh=Yes   AtJoints=Yes   AtFrames=No   NumSegments=0   MaxLength=0   MaxDegrees=0
   Frame=9   AutoMesh=Yes   AtJoints=Yes   AtFrames=No   NumSegments=0   MaxLength=0   MaxDegrees=0
   Frame=10   AutoMesh=Yes   AtJoints=Yes   AtFrames=No   NumSegments=0   MaxLength=0   MaxDegrees=0
   Frame=11   AutoMesh=Yes   AtJoints=Yes   AtFrames=No   NumSegments=0   MaxLength=0   MaxDegrees=0
   Frame=12   AutoMesh=Yes   AtJoints=Yes   AtFrames=No   NumSegments=0   MaxLength=0   MaxDegrees=0
   Frame=13   AutoMesh=Yes   AtJoints=Yes   AtFrames=No   NumSegments=0   MaxLength=0   MaxDegrees=0
   Frame=14   AutoMesh=Yes   AtJoints=Yes   AtFrames=No   NumSegments=0   MaxLength=0   MaxDegrees=0
   Frame=15   AutoMesh=Yes   AtJoints=Yes   AtFrames=No   NumSegments=0   MaxLength=0   MaxDegrees=0
   Frame=16   AutoMesh=Yes   AtJoints=Yes   AtFrames=No   NumSegments=0   MaxLength=0   MaxDegrees=0
   Frame=17   AutoMesh=Yes   AtJoints=Yes   AtFrames=No   NumSegments=0   MaxLength=0   MaxDegrees=0
   Frame=18   AutoMesh=Yes   AtJoints=Yes   AtFrames=No   NumSegments=0   MaxLength=0   MaxDegrees=0
   Frame=19   AutoMesh=Yes   AtJoints=Yes   AtFrames=No   NumSegments=0   MaxLength=0   MaxDegrees=0
   Frame=20   AutoMesh=Yes   AtJoints=Yes   AtFrames=No   NumSegments=0   MaxLength=0   MaxDegrees=0
# ... 360 like lines cut
 
TABLE:  "FRAME DESIGN PROCEDURES"
   Frame=1   DesignProc="No Design"
   Frame=2   DesignProc="From Material"
   Frame=3   DesignProc="From Material"
   Frame=4   DesignProc="From Material"
   Frame=5   DesignProc="From Material"
   Frame=6   DesignProc="From Material"
   Frame=7   DesignProc="From Material"
   Frame=8   DesignProc="From Material"
   Frame=9   DesignProc="From Material"
   Frame=10   DesignProc="From Material"
   Frame=11   DesignProc="From Material"
   Frame=12   DesignProc="From Material"
   Frame=13   DesignProc="From Material"
   Frame=14   DesignProc="From Material"
   Frame=15   DesignProc="From Material"
   Frame=16   DesignProc="From Material"
   Frame=17   DesignProc="From Material"
   Frame=18   DesignProc="From Material"
   Frame=19   DesignProc="From Material"
   Frame=20   DesignProc="From Material"
   Frame=21   DesignProc="From Material"
# ... 359 like lines cut
 
TABLE:  "FRAME INSERTION POINT ASSIGNMENTS"
   Frame=1   CardinalPt="8 (top center)"   Mirror2=No   Mirror3=No   Transform=Yes
   Frame=2   CardinalPt="8 (top center)"   Mirror2=No   Mirror3=No   Transform=Yes
   Frame=3   CardinalPt="8 (top center)"   Mirror2=No   Mirror3=No   Transform=Yes
   Frame=4   CardinalPt="8 (top center)"   Mirror2=No   Mirror3=No   Transform=Yes
   Frame=5   CardinalPt="8 (top center)"   Mirror2=No   Mirror3=No   Transform=Yes
   Frame=6   CardinalPt="8 (top center)"   Mirror2=No   Mirror3=No   Transform=Yes
   Frame=7   CardinalPt="8 (top center)"   Mirror2=No   Mirror3=No   Transform=Yes
   Frame=8   CardinalPt="8 (top center)"   Mirror2=No   Mirror3=No   Transform=Yes
   Frame=9   CardinalPt="8 (top center)"   Mirror2=No   Mirror3=No   Transform=Yes
   Frame=10   CardinalPt="8 (top center)"   Mirror2=No   Mirror3=No   Transform=Yes
   Frame=11   CardinalPt="8 (top center)"   Mirror2=No   Mirror3=No   Transform=Yes
   Frame=12   CardinalPt="8 (top center)"   Mirror2=No   Mirror3=No   Transform=Yes
   Frame=13   CardinalPt="8 (top center)"   Mirror2=No   Mirror3=No   Transform=Yes
   Frame=14   CardinalPt="8 (top center)"   Mirror2=No   Mirror3=No   Transform=Yes
   Frame=15   CardinalPt="8 (top center)"   Mirror2=No   Mirror3=No   Transform=Yes
   Frame=16   CardinalPt="8 (top center)"   Mirror2=No   Mirror3=No   Transform=Yes
   Frame=17   CardinalPt="8 (top center)"   Mirror2=No   Mirror3=No   Transform=Yes
   Frame=18   CardinalPt="8 (top center)"   Mirror2=No   Mirror3=No   Transform=Yes
   Frame=19   CardinalPt="8 (top center)"   Mirror2=No   Mirror3=No   Transform=Yes
   Frame=20   CardinalPt="8 (top center)"   Mirror2=No   Mirror3=No   Transform=Yes
# ... 360 like lines cut
 
TABLE:  "FRAME LOAD TRANSFER OPTIONS"
   Frame=1   Transfer=Yes
   Frame=2   Transfer=Yes
   Frame=3   Transfer=Yes
   Frame=4   Transfer=Yes
   Frame=5   Transfer=Yes
   Frame=6   Transfer=Yes
   Frame=7   Transfer=Yes
   Frame=8   Transfer=Yes
   Frame=9   Transfer=Yes
   Frame=10   Transfer=Yes
   Frame=11   Transfer=Yes
   Frame=12   Transfer=Yes
   Frame=13   Transfer=Yes
   Frame=14   Transfer=Yes
   Frame=15   Transfer=Yes
   Frame=16   Transfer=Yes
   Frame=17   Transfer=Yes
   Frame=18   Transfer=Yes
   Frame=19   Transfer=Yes
   Frame=20   Transfer=Yes
# ... 360 like lines cut
 
TABLE:  "FRAME OUTPUT STATION ASSIGNMENTS"
   Frame=1   StationType=MinNumSta   MinNumSta=3   AddAtElmInt=Yes   AddAtPtLoad=Yes
   Frame=2   StationType=MinNumSta   MinNumSta=3   AddAtElmInt=Yes   AddAtPtLoad=Yes
   Frame=3   StationType=MinNumSta   MinNumSta=3   AddAtElmInt=Yes   AddAtPtLoad=Yes
   Frame=4   StationType=MinNumSta   MinNumSta=3   AddAtElmInt=Yes   AddAtPtLoad=Yes
   Frame=5   StationType=MinNumSta   MinNumSta=3   AddAtElmInt=Yes   AddAtPtLoad=Yes
   Frame=6   StationType=MinNumSta   MinNumSta=3   AddAtElmInt=Yes   AddAtPtLoad=Yes
   Frame=7   StationType=MinNumSta   MinNumSta=3   AddAtElmInt=Yes   AddAtPtLoad=Yes
   Frame=8   StationType=MinNumSta   MinNumSta=3   AddAtElmInt=Yes   AddAtPtLoad=Yes
   Frame=9   StationType=MinNumSta   MinNumSta=3   AddAtElmInt=Yes   AddAtPtLoad=Yes
   Frame=10   StationType=MinNumSta   MinNumSta=3   AddAtElmInt=Yes   AddAtPtLoad=Yes
   Frame=11   StationType=MinNumSta   MinNumSta=3   AddAtElmInt=Yes   AddAtPtLoad=Yes
   Frame=12   StationType=MinNumSta   MinNumSta=3   AddAtElmInt=Yes   AddAtPtLoad=Yes
   Frame=13   StationType=MinNumSta   MinNumSta=3   AddAtElmInt=Yes   AddAtPtLoad=Yes
   Frame=14   StationType=MinNumSta   MinNumSta=3   AddAtElmInt=Yes   AddAtPtLoad=Yes
   Frame=15   StationType=MinNumSta   MinNumSta=3   AddAtElmInt=Yes   AddAtPtLoad=Yes
   Frame=16   StationType=MinNumSta   MinNumSta=3   AddAtElmInt=Yes   AddAtPtLoad=Yes
   Frame=17   StationType=MinNumSta   MinNumSta=3   AddAtElmInt=Yes   AddAtPtLoad=Yes
   Frame=18   StationType=MinNumSta   MinNumSta=3   AddAtElmInt=Yes   AddAtPtLoad=Yes
   Frame=19   StationType=MinNumSta   MinNumSta=3   AddAtElmInt=Yes   AddAtPtLoad=Yes
   Frame=20   StationType=MinNumSta   MinNumSta=3   AddAtElmInt=Yes   AddAtPtLoad=Yes
# ... 136 like lines cut
   Frame=157   StationType=MaxStaSpcg   MaxStaSpcg=0.5   AddAtElmInt=Yes   AddAtPtLoad=Yes
   Frame=158   StationType=MinNumSta   MinNumSta=3   AddAtElmInt=Yes   AddAtPtLoad=Yes
   Frame=159   StationType=MaxStaSpcg   MaxStaSpcg=0.5   AddAtElmInt=Yes   AddAtPtLoad=Yes
   Frame=160   StationType=MaxStaSpcg   MaxStaSpcg=0.5   AddAtElmInt=Yes   AddAtPtLoad=Yes
   Frame=161   StationType=MaxStaSpcg   MaxStaSpcg=0.5   AddAtElmInt=Yes   AddAtPtLoad=Yes
   Frame=162   StationType=MaxStaSpcg   MaxStaSpcg=0.5   AddAtElmInt=Yes   AddAtPtLoad=Yes
   Frame=163   StationType=MaxStaSpcg   MaxStaSpcg=0.5   AddAtElmInt=Yes   AddAtPtLoad=Yes
   Frame=164   StationType=MaxStaSpcg   MaxStaSpcg=0.5   AddAtElmInt=Yes   AddAtPtLoad=Yes
   Frame=165   StationType=MaxStaSpcg   MaxStaSpcg=0.5   AddAtElmInt=Yes   AddAtPtLoad=Yes
   Frame=166   StationType=MaxStaSpcg   MaxStaSpcg=0.5   AddAtElmInt=Yes   AddAtPtLoad=Yes
   Frame=167   StationType=MaxStaSpcg   MaxStaSpcg=0.5   AddAtElmInt=Yes   AddAtPtLoad=Yes
   Frame=168   StationType=MaxStaSpcg   MaxStaSpcg=0.5   AddAtElmInt=Yes   AddAtPtLoad=Yes
   Frame=169   StationType=MinNumSta   MinNumSta=3   AddAtElmInt=Yes   AddAtPtLoad=Yes
   Frame=170   StationType=MaxStaSpcg   MaxStaSpcg=0.5   AddAtElmInt=Yes   AddAtPtLoad=Yes
   Frame=171   StationType=MaxStaSpcg   MaxStaSpcg=0.5   AddAtElmInt=Yes   AddAtPtLoad=Yes
   Frame=172   StationType=MaxStaSpcg   MaxStaSpcg=0.5   AddAtElmInt=Yes   AddAtPtLoad=Yes
   Frame=173   StationType=MaxStaSpcg   MaxStaSpcg=0.5   AddAtElmInt=Yes   AddAtPtLoad=Yes
   Frame=174   StationType=MaxStaSpcg   MaxStaSpcg=0.5   AddAtElmInt=Yes   AddAtPtLoad=Yes
   Frame=175   StationType=MaxStaSpcg   MaxStaSpcg=0.5   AddAtElmInt=Yes   AddAtPtLoad=Yes
   Frame=176   StationType=MaxStaSpcg   MaxStaSpcg=0.5   AddAtElmInt=Yes   AddAtPtLoad=Yes
   Frame=177   StationType=MaxStaSpcg   MaxStaSpcg=0.5   AddAtElmInt=Yes   AddAtPtLoad=Yes
   Frame=178   StationType=MaxStaSpcg   MaxStaSpcg=0.5   AddAtElmInt=Yes   AddAtPtLoad=Yes
   Frame=179   StationType=MaxStaSpcg   MaxStaSpcg=0.5   AddAtElmInt=Yes   AddAtPtLoad=Yes
   Frame=180   StationType=MinNumSta   MinNumSta=3   AddAtElmInt=Yes   AddAtPtLoad=Yes
   Frame=181   StationType=MaxStaSpcg   MaxStaSpcg=0.5   AddAtElmInt=Yes   AddAtPtLoad=Yes
   Frame=182   StationType=MaxStaSpcg   MaxStaSpcg=0.5   AddAtElmInt=Yes   AddAtPtLoad=Yes
   Frame=183   StationType=MaxStaSpcg   MaxStaSpcg=0.5   AddAtElmInt=Yes   AddAtPtLoad=Yes
   Frame=184   StationType=MaxStaSpcg   MaxStaSpcg=0.5   AddAtElmInt=Yes   AddAtPtLoad=Yes
   Frame=185   StationType=MaxStaSpcg   MaxStaSpcg=0.5   AddAtElmInt=Yes   AddAtPtLoad=Yes
   Frame=186   StationType=MaxStaSpcg   MaxStaSpcg=0.5   AddAtElmInt=Yes   AddAtPtLoad=Yes
   Frame=187   StationType=MaxStaSpcg   MaxStaSpcg=0.5   AddAtElmInt=Yes   AddAtPtLoad=Yes
   Frame=188   StationType=MaxStaSpcg   MaxStaSpcg=0.5   AddAtElmInt=Yes   AddAtPtLoad=Yes
   Frame=189   StationType=MaxStaSpcg   MaxStaSpcg=0.5   AddAtElmInt=Yes   AddAtPtLoad=Yes
   Frame=190   StationType=MaxStaSpcg   MaxStaSpcg=0.5   AddAtElmInt=Yes   AddAtPtLoad=Yes
   Frame=191   StationType=MinNumSta   MinNumSta=3   AddAtElmInt=Yes   AddAtPtLoad=Yes
   Frame=192   StationType=MaxStaSpcg   MaxStaSpcg=0.5   AddAtElmInt=Yes   AddAtPtLoad=Yes
   Frame=193   StationType=MaxStaSpcg   MaxStaSpcg=0.5   AddAtElmInt=Yes   AddAtPtLoad=Yes
   Frame=194   StationType=MaxStaSpcg   MaxStaSpcg=0.5   AddAtElmInt=Yes   AddAtPtLoad=Yes
   Frame=195   StationType=MaxStaSpcg   MaxStaSpcg=0.5   AddAtElmInt=Yes   AddAtPtLoad=Yes
   Frame=196   StationType=MaxStaSpcg   MaxStaSpcg=0.5   AddAtElmInt=Yes   AddAtPtLoad=Yes
   Frame=197   StationType=MaxStaSpcg   MaxStaSpcg=0.5   AddAtElmInt=Yes   AddAtPtLoad=Yes
   Frame=198   StationType=MaxStaSpcg   MaxStaSpcg=0.5   AddAtElmInt=Yes   AddAtPtLoad=Yes
   Frame=199   StationType=MaxStaSpcg   MaxStaSpcg=0.5   AddAtElmInt=Yes   AddAtPtLoad=Yes
   Frame=200   StationType=MaxStaSpcg   MaxStaSpcg=0.5   AddAtElmInt=Yes   AddAtPtLoad=Yes
   Frame=201   StationType=MaxStaSpcg   MaxStaSpcg=0.5   AddAtElmInt=Yes   AddAtPtLoad=Yes
   Frame=202   StationType=MinNumSta   MinNumSta=3   AddAtElmInt=Yes   AddAtPtLoad=Yes
   Frame=203   StationType=MaxStaSpcg   MaxStaSpcg=0.5   AddAtElmInt=Yes   AddAtPtLoad=Yes
   Frame=204   StationType=MaxStaSpcg   MaxStaSpcg=0.5   AddAtElmInt=Yes   AddAtPtLoad=Yes
   Frame=205   StationType=MaxStaSpcg   MaxStaSpcg=0.5   AddAtElmInt=Yes   AddAtPtLoad=Yes
   Frame=206   StationType=MaxStaSpcg   MaxStaSpcg=0.5   AddAtElmInt=Yes   AddAtPtLoad=Yes
   Frame=207   StationType=MaxStaSpcg   MaxStaSpcg=0.5   AddAtElmInt=Yes   AddAtPtLoad=Yes
   Frame=208   StationType=MaxStaSpcg   MaxStaSpcg=0.5   AddAtElmInt=Yes   AddAtPtLoad=Yes
   Frame=209   StationType=MaxStaSpcg   MaxStaSpcg=0.5   AddAtElmInt=Yes   AddAtPtLoad=Yes
   Frame=210   StationType=MaxStaSpcg   MaxStaSpcg=0.5   AddAtElmInt=Yes   AddAtPtLoad=Yes
   Frame=211   StationType=MaxStaSpcg   MaxStaSpcg=0.5   AddAtElmInt=Yes   AddAtPtLoad=Yes
   Frame=212   StationType=MaxStaSpcg   MaxStaSpcg=0.5   AddAtElmInt=Yes   AddAtPtLoad=Yes
   Frame=213   StationType=MinNumSta   MinNumSta=3   AddAtElmInt=Yes   AddAtPtLoad=Yes
   Frame=214   StationType=MaxStaSpcg   MaxStaSpcg=0.5   AddAtElmInt=Yes   AddAtPtLoad=Yes
   Frame=215   StationType=MaxStaSpcg   MaxStaSpcg=0.5   AddAtElmInt=Yes   AddAtPtLoad=Yes
   Frame=216   StationType=MaxStaSpcg   MaxStaSpcg=0.5   AddAtElmInt=Yes   AddAtPtLoad=Yes
   Frame=217   StationType=MaxStaSpcg   MaxStaSpcg=0.5   AddAtElmInt=Yes   AddAtPtLoad=Yes
   Frame=218   StationType=MaxStaSpcg   MaxStaSpcg=0.5   AddAtElmInt=Yes   AddAtPtLoad=Yes
   Frame=219   StationType=MaxStaSpcg   MaxStaSpcg=0.5   AddAtElmInt=Yes   AddAtPtLoad=Yes
   Frame=220   StationType=MaxStaSpcg   MaxStaSpcg=0.5   AddAtElmInt=Yes   AddAtPtLoad=Yes
   Frame=221   StationType=MaxStaSpcg   MaxStaSpcg=0.5   AddAtElmInt=Yes   AddAtPtLoad=Yes
   Frame=222   StationType=MaxStaSpcg   MaxStaSpcg=0.5   AddAtElmInt=Yes   AddAtPtLoad=Yes
   Frame=223   StationType=MaxStaSpcg   MaxStaSpcg=0.5   AddAtElmInt=Yes   AddAtPtLoad=Yes
   Frame=224   StationType=MinNumSta   MinNumSta=3   AddAtElmInt=Yes   AddAtPtLoad=Yes
   Frame=225   StationType=MinNumSta   MinNumSta=3   AddAtElmInt=Yes   AddAtPtLoad=Yes
   Frame=226   StationType=MaxStaSpcg   MaxStaSpcg=0.5   AddAtElmInt=Yes   AddAtPtLoad=Yes
   Frame=227   StationType=MaxStaSpcg   MaxStaSpcg=0.5   AddAtElmInt=Yes   AddAtPtLoad=Yes
   Frame=228   StationType=MaxStaSpcg   MaxStaSpcg=0.5   AddAtElmInt=Yes   AddAtPtLoad=Yes
   Frame=229   StationType=MaxStaSpcg   MaxStaSpcg=0.5   AddAtElmInt=Yes   AddAtPtLoad=Yes
   Frame=230   StationType=MaxStaSpcg   MaxStaSpcg=0.5   AddAtElmInt=Yes   AddAtPtLoad=Yes
   Frame=231   StationType=MaxStaSpcg   MaxStaSpcg=0.5   AddAtElmInt=Yes   AddAtPtLoad=Yes
   Frame=232   StationType=MaxStaSpcg   MaxStaSpcg=0.5   AddAtElmInt=Yes   AddAtPtLoad=Yes
   Frame=233   StationType=MaxStaSpcg   MaxStaSpcg=0.5   AddAtElmInt=Yes   AddAtPtLoad=Yes
   Frame=234   StationType=MaxStaSpcg   MaxStaSpcg=0.5   AddAtElmInt=Yes   AddAtPtLoad=Yes
   Frame=235   StationType=MaxStaSpcg   MaxStaSpcg=0.5   AddAtElmInt=Yes   AddAtPtLoad=Yes
   Frame=236   StationType=MinNumSta   MinNumSta=3   AddAtElmInt=Yes   AddAtPtLoad=Yes
   Frame=237   StationType=MaxStaSpcg   MaxStaSpcg=0.5   AddAtElmInt=Yes   AddAtPtLoad=Yes
   Frame=238   StationType=MaxStaSpcg   MaxStaSpcg=0.5   AddAtElmInt=Yes   AddAtPtLoad=Yes
   Frame=239   StationType=MaxStaSpcg   MaxStaSpcg=0.5   AddAtElmInt=Yes   AddAtPtLoad=Yes
   Frame=240   StationType=MaxStaSpcg   MaxStaSpcg=0.5   AddAtElmInt=Yes   AddAtPtLoad=Yes
   Frame=241   StationType=MaxStaSpcg   MaxStaSpcg=0.5   AddAtElmInt=Yes   AddAtPtLoad=Yes
   Frame=242   StationType=MaxStaSpcg   MaxStaSpcg=0.5   AddAtElmInt=Yes   AddAtPtLoad=Yes
   Frame=243   StationType=MaxStaSpcg   MaxStaSpcg=0.5   AddAtElmInt=Yes   AddAtPtLoad=Yes
   Frame=244   StationType=MaxStaSpcg   MaxStaSpcg=0.5   AddAtElmInt=Yes   AddAtPtLoad=Yes
   Frame=245   StationType=MaxStaSpcg   MaxStaSpcg=0.5   AddAtElmInt=Yes   AddAtPtLoad=Yes
   Frame=246   StationType=MaxStaSpcg   MaxStaSpcg=0.5   AddAtElmInt=Yes   AddAtPtLoad=Yes
   Frame=247   StationType=MinNumSta   MinNumSta=3   AddAtElmInt=Yes   AddAtPtLoad=Yes
   Frame=248   StationType=MaxStaSpcg   MaxStaSpcg=0.5   AddAtElmInt=Yes   AddAtPtLoad=Yes
   Frame=249   StationType=MaxStaSpcg   MaxStaSpcg=0.5   AddAtElmInt=Yes   AddAtPtLoad=Yes
   Frame=250   StationType=MaxStaSpcg   MaxStaSpcg=0.5   AddAtElmInt=Yes   AddAtPtLoad=Yes
   Frame=251   StationType=MaxStaSpcg   MaxStaSpcg=0.5   AddAtElmInt=Yes   AddAtPtLoad=Yes
   Frame=252   StationType=MaxStaSpcg   MaxStaSpcg=0.5   AddAtElmInt=Yes   AddAtPtLoad=Yes
   Frame=253   StationType=MaxStaSpcg   MaxStaSpcg=0.5   AddAtElmInt=Yes   AddAtPtLoad=Yes
   Frame=254   StationType=MaxStaSpcg   MaxStaSpcg=0.5   AddAtElmInt=Yes   AddAtPtLoad=Yes
   Frame=255   StationType=MaxStaSpcg   MaxStaSpcg=0.5   AddAtElmInt=Yes   AddAtPtLoad=Yes
   Frame=256   StationType=MaxStaSpcg   MaxStaSpcg=0.5   AddAtElmInt=Yes   AddAtPtLoad=Yes
   Frame=257   StationType=MaxStaSpcg   MaxStaSpcg=0.5   AddAtElmInt=Yes   AddAtPtLoad=Yes
   Frame=258   StationType=MinNumSta   MinNumSta=3   AddAtElmInt=Yes   AddAtPtLoad=Yes
   Frame=259   StationType=MaxStaSpcg   MaxStaSpcg=0.5   AddAtElmInt=Yes   AddAtPtLoad=Yes
   Frame=260   StationType=MaxStaSpcg   MaxStaSpcg=0.5   AddAtElmInt=Yes   AddAtPtLoad=Yes
   Frame=261   StationType=MaxStaSpcg   MaxStaSpcg=0.5   AddAtElmInt=Yes   AddAtPtLoad=Yes
   Frame=262   StationType=MaxStaSpcg   MaxStaSpcg=0.5   AddAtElmInt=Yes   AddAtPtLoad=Yes
   Frame=263   StationType=MaxStaSpcg   MaxStaSpcg=0.5   AddAtElmInt=Yes   AddAtPtLoad=Yes
   Frame=264   StationType=MaxStaSpcg   MaxStaSpcg=0.5   AddAtElmInt=Yes   AddAtPtLoad=Yes
   Frame=265   StationType=MaxStaSpcg   MaxStaSpcg=0.5   AddAtElmInt=Yes   AddAtPtLoad=Yes
   Frame=266   StationType=MaxStaSpcg   MaxStaSpcg=0.5   AddAtElmInt=Yes   AddAtPtLoad=Yes
   Frame=267   StationType=MaxStaSpcg   MaxStaSpcg=0.5   AddAtElmInt=Yes   AddAtPtLoad=Yes
   Frame=268   StationType=MaxStaSpcg   MaxStaSpcg=0.5   AddAtElmInt=Yes   AddAtPtLoad=Yes
   Frame=269   StationType=MinNumSta   MinNumSta=3   AddAtElmInt=Yes   AddAtPtLoad=Yes
   Frame=270   StationType=MaxStaSpcg   MaxStaSpcg=0.5   AddAtElmInt=Yes   AddAtPtLoad=Yes
   Frame=271   StationType=MaxStaSpcg   MaxStaSpcg=0.5   AddAtElmInt=Yes   AddAtPtLoad=Yes
   Frame=272   StationType=MaxStaSpcg   MaxStaSpcg=0.5   AddAtElmInt=Yes   AddAtPtLoad=Yes
   Frame=273   StationType=MaxStaSpcg   MaxStaSpcg=0.5   AddAtElmInt=Yes   AddAtPtLoad=Yes
   Frame=274   StationType=MaxStaSpcg   MaxStaSpcg=0.5   AddAtElmInt=Yes   AddAtPtLoad=Yes
   Frame=275   StationType=MaxStaSpcg   MaxStaSpcg=0.5   AddAtElmInt=Yes   AddAtPtLoad=Yes
   Frame=276   StationType=MaxStaSpcg   MaxStaSpcg=0.5   AddAtElmInt=Yes   AddAtPtLoad=Yes
   Frame=277   StationType=MaxStaSpcg   MaxStaSpcg=0.5   AddAtElmInt=Yes   AddAtPtLoad=Yes
   Frame=278   StationType=MaxStaSpcg   MaxStaSpcg=0.5   AddAtElmInt=Yes   AddAtPtLoad=Yes
   Frame=279   StationType=MaxStaSpcg   MaxStaSpcg=0.5   AddAtElmInt=Yes   AddAtPtLoad=Yes
   Frame=280   StationType=MinNumSta   MinNumSta=3   AddAtElmInt=Yes   AddAtPtLoad=Yes
   Frame=282   StationType=MaxStaSpcg   MaxStaSpcg=0.5   AddAtElmInt=Yes   AddAtPtLoad=Yes
   Frame=283   StationType=MaxStaSpcg   MaxStaSpcg=0.5   AddAtElmInt=Yes   AddAtPtLoad=Yes
   Frame=284   StationType=MaxStaSpcg   MaxStaSpcg=0.5   AddAtElmInt=Yes   AddAtPtLoad=Yes
   Frame=285   StationType=MaxStaSpcg   MaxStaSpcg=0.5   AddAtElmInt=Yes   AddAtPtLoad=Yes
   Frame=286   StationType=MaxStaSpcg   MaxStaSpcg=0.5   AddAtElmInt=Yes   AddAtPtLoad=Yes
   Frame=287   StationType=MaxStaSpcg   MaxStaSpcg=0.5   AddAtElmInt=Yes   AddAtPtLoad=Yes
   Frame=288   StationType=MaxStaSpcg   MaxStaSpcg=0.5   AddAtElmInt=Yes   AddAtPtLoad=Yes
   Frame=289   StationType=MaxStaSpcg   MaxStaSpcg=0.5   AddAtElmInt=Yes   AddAtPtLoad=Yes
   Frame=290   StationType=MaxStaSpcg   MaxStaSpcg=0.5   AddAtElmInt=Yes   AddAtPtLoad=Yes
   Frame=291   StationType=MinNumSta   MinNumSta=3   AddAtElmInt=Yes   AddAtPtLoad=Yes
   Frame=292   StationType=MaxStaSpcg   MaxStaSpcg=0.5   AddAtElmInt=Yes   AddAtPtLoad=Yes
   Frame=293   StationType=MaxStaSpcg   MaxStaSpcg=0.5   AddAtElmInt=Yes   AddAtPtLoad=Yes
   Frame=294   StationType=MaxStaSpcg   MaxStaSpcg=0.5   AddAtElmInt=Yes   AddAtPtLoad=Yes
   Frame=295   StationType=MaxStaSpcg   MaxStaSpcg=0.5   AddAtElmInt=Yes   AddAtPtLoad=Yes
   Frame=296   StationType=MaxStaSpcg   MaxStaSpcg=0.5   AddAtElmInt=Yes   AddAtPtLoad=Yes
   Frame=297   StationType=MaxStaSpcg   MaxStaSpcg=0.5   AddAtElmInt=Yes   AddAtPtLoad=Yes
   Frame=298   StationType=MaxStaSpcg   MaxStaSpcg=0.5   AddAtElmInt=Yes   AddAtPtLoad=Yes
   Frame=299   StationType=MaxStaSpcg   MaxStaSpcg=0.5   AddAtElmInt=Yes   AddAtPtLoad=Yes
   Frame=300   StationType=MaxStaSpcg   MaxStaSpcg=0.5   AddAtElmInt=Yes   AddAtPtLoad=Yes
   Frame=301   StationType=MaxStaSpcg   MaxStaSpcg=0.5   AddAtElmInt=Yes   AddAtPtLoad=Yes
   Frame=302   StationType=MinNumSta   MinNumSta=3   AddAtElmInt=Yes   AddAtPtLoad=Yes
   Frame=303   StationType=MaxStaSpcg   MaxStaSpcg=0.5   AddAtElmInt=Yes   AddAtPtLoad=Yes
   Frame=304   StationType=MaxStaSpcg   MaxStaSpcg=0.5   AddAtElmInt=Yes   AddAtPtLoad=Yes
   Frame=305   StationType=MaxStaSpcg   MaxStaSpcg=0.5   AddAtElmInt=Yes   AddAtPtLoad=Yes
   Frame=306   StationType=MaxStaSpcg   MaxStaSpcg=0.5   AddAtElmInt=Yes   AddAtPtLoad=Yes
   Frame=307   StationType=MaxStaSpcg   MaxStaSpcg=0.5   AddAtElmInt=Yes   AddAtPtLoad=Yes
   Frame=308   StationType=MaxStaSpcg   MaxStaSpcg=0.5   AddAtElmInt=Yes   AddAtPtLoad=Yes
   Frame=309   StationType=MaxStaSpcg   MaxStaSpcg=0.5   AddAtElmInt=Yes   AddAtPtLoad=Yes
   Frame=310   StationType=MaxStaSpcg   MaxStaSpcg=0.5   AddAtElmInt=Yes   AddAtPtLoad=Yes
   Frame=311   StationType=MaxStaSpcg   MaxStaSpcg=0.5   AddAtElmInt=Yes   AddAtPtLoad=Yes
   Frame=312   StationType=MaxStaSpcg   MaxStaSpcg=0.5   AddAtElmInt=Yes   AddAtPtLoad=Yes
   Frame=313   StationType=MinNumSta   MinNumSta=3   AddAtElmInt=Yes   AddAtPtLoad=Yes
   Frame=314   StationType=MinNumSta   MinNumSta=3   AddAtElmInt=Yes   AddAtPtLoad=Yes
   Frame=315   StationType=MinNumSta   MinNumSta=3   AddAtElmInt=Yes   AddAtPtLoad=Yes
   Frame=316   StationType=MinNumSta   MinNumSta=3   AddAtElmInt=Yes   AddAtPtLoad=Yes
   Frame=317   StationType=MinNumSta   MinNumSta=3   AddAtElmInt=Yes   AddAtPtLoad=Yes
   Frame=318   StationType=MinNumSta   MinNumSta=3   AddAtElmInt=Yes   AddAtPtLoad=Yes
   Frame=319   StationType=MinNumSta   MinNumSta=3   AddAtElmInt=Yes   AddAtPtLoad=Yes
   Frame=320   StationType=MinNumSta   MinNumSta=3   AddAtElmInt=Yes   AddAtPtLoad=Yes
   Frame=321   StationType=MinNumSta   MinNumSta=3   AddAtElmInt=Yes   AddAtPtLoad=Yes
   Frame=322   StationType=MinNumSta   MinNumSta=3   AddAtElmInt=Yes   AddAtPtLoad=Yes
   Frame=323   StationType=MinNumSta   MinNumSta=3   AddAtElmInt=Yes   AddAtPtLoad=Yes
   Frame=324   StationType=MinNumSta   MinNumSta=3   AddAtElmInt=Yes   AddAtPtLoad=Yes
   Frame=325   StationType=MinNumSta   MinNumSta=3   AddAtElmInt=Yes   AddAtPtLoad=Yes
   Frame=326   StationType=MinNumSta   MinNumSta=3   AddAtElmInt=Yes   AddAtPtLoad=Yes
   Frame=327   StationType=MinNumSta   MinNumSta=3   AddAtElmInt=Yes   AddAtPtLoad=Yes
   Frame=328   StationType=MinNumSta   MinNumSta=3   AddAtElmInt=Yes   AddAtPtLoad=Yes
   Frame=329   StationType=MinNumSta   MinNumSta=3   AddAtElmInt=Yes   AddAtPtLoad=Yes
   Frame=330   StationType=MinNumSta   MinNumSta=3   AddAtElmInt=Yes   AddAtPtLoad=Yes
   Frame=331   StationType=MinNumSta   MinNumSta=3   AddAtElmInt=Yes   AddAtPtLoad=Yes
   Frame=332   StationType=MinNumSta   MinNumSta=3   AddAtElmInt=Yes   AddAtPtLoad=Yes
# ... 49 like lines cut
 
TABLE:  "FRAME SECTION ASSIGNMENTS"
   Frame=1   AutoSelect=N.A.   AnalSect=HSS2-1/4X2X1/8   MatProp=Default
   Frame=2   AutoSelect=N.A.   AnalSect=HSS2-1/4X2X1/8   MatProp=Default
   Frame=3   AutoSelect=N.A.   AnalSect=HSS2-1/4X2X1/8   MatProp=Default
   Frame=4   AutoSelect=N.A.   AnalSect=HSS2-1/4X2X1/8   MatProp=Default
   Frame=5   AutoSelect=N.A.   AnalSect=HSS2-1/4X2X1/8   MatProp=Default
   Frame=6   AutoSelect=N.A.   AnalSect=HSS2-1/4X2X1/8   MatProp=Default
   Frame=7   AutoSelect=N.A.   AnalSect=HSS2-1/4X2X1/8   MatProp=Default
   Frame=8   AutoSelect=N.A.   AnalSect=HSS2-1/4X2X1/8   MatProp=Default
   Frame=9   AutoSelect=N.A.   AnalSect=HSS2-1/4X2X1/8   MatProp=Default
   Frame=10   AutoSelect=N.A.   AnalSect=HSS2-1/4X2X1/8   MatProp=Default
   Frame=11   AutoSelect=N.A.   AnalSect=HSS2-1/4X2X1/8   MatProp=Default
   Frame=12   AutoSelect=N.A.   AnalSect=HSS2-1/4X2X1/8   MatProp=Default
   Frame=13   AutoSelect=N.A.   AnalSect=HSS2-1/4X2X1/8   MatProp=Default
   Frame=14   AutoSelect=N.A.   AnalSect=HSS2-1/4X2X1/8   MatProp=Default
   Frame=15   AutoSelect=N.A.   AnalSect=HSS2-1/4X2X1/8   MatProp=Default
   Frame=16   AutoSelect=N.A.   AnalSect=HSS2-1/4X2X1/8   MatProp=Default
   Frame=17   AutoSelect=N.A.   AnalSect=HSS2-1/4X2X1/8   MatProp=Default
   Frame=18   AutoSelect=N.A.   AnalSect=HSS2-1/4X2X1/8   MatProp=Default
   Frame=19   AutoSelect=N.A.   AnalSect=HSS2-1/4X2X1/8   MatProp=Default
   Frame=20   AutoSelect=N.A.   AnalSect=HSS2-1/4X2X1/8   MatProp=Default
# ... 360 like lines cut
 
TABLE:  "FRAME SECTION PROPERTIES 01 - GENERAL"
   SectionName=FSEC1   Material=A992Fy50   Shape="I/Wide Flange"   t3=0.3048   t2=0.127   tf=0.009652   tw=0.00635   t2b=0.127   tfb=0.009652   Area=0.0042645076   TorsConst=9.65117678053953E-08   I33=6.5724174702235E-05 _
        I22=3.30125717301008E-06   I23=0   AS2=0.00193548   AS3=2.04300666666667E-03   S33=4.3126098885981E-04   S22=5.19883019371667E-05   Z33=4.911874950424E-04   Z22=0.000080716532115   R33=0.124144683132414   R22=2.78230817990979E-02 _
        Color=Blue   FromFile=No   AMod=1   A2Mod=1   A3Mod=1   JMod=1   I2Mod=1   I3Mod=1   MMod=1   WMod=1   Notes="Added 1/26/2015 2:18:46 PM"
   SectionName=HSS2-1/4X2X1/8   Material=A992Fy50   Shape=Box/Tube   t3=0.05715   t2=0.0508   tf=2.94639991521835E-03   tw=2.94639991521835E-03   Area=5.79353681230545E-04   TorsConst=3.98333481444286E-07   I33=2.68885512449127E-07 _
        I22=2.2393250181246E-07   I23=0   AS2=3.36773529536724E-04   AS3=2.99354231386185E-04   S33=9.40981670863088E-06   S22=8.81624022883701E-06   Z33=1.13562356567445E-05   Z22=1.04713338725581E-05   R33=2.15432795074254E-02 _
        R22=1.96601433740449E-02   Color=Green   FromFile=Yes   AMod=1   A2Mod=1   A3Mod=1   JMod=1   I2Mod=1   I3Mod=1   MMod=1   WMod=1   SectInFile=HSS2-1/4X2X.125   FileName="C:\Program Files (x86)\Computers and Structures\SAP2000 16\AISC14.pro"
 
TABLE:  "FRAME SECTION PROPERTIES 13 - TIME DEPENDENT"
   SectionName=FSEC1   TypeSize=Auto   AutoSFSize=1
   SectionName=HSS2-1/4X2X1/8   TypeSize=Auto   AutoSFSize=1
 
TABLE:  "FUNCTION - POWER SPECTRAL DENSITY - USER"
   Name=UNIFPSD   Frequency=0   Value=1
   Name=UNIFPSD   Frequency=1   Value=1
 
TABLE:  "FUNCTION - RESPONSE SPECTRUM - USER"
   Name=UNIFRS   Period=0   Accel=1   FuncDamp=0.05
   Name=UNIFRS   Period=1   Accel=1
 
TABLE:  "FUNCTION - STEADY STATE - USER"
   Name=UNIFSS   Frequency=0   Value=1
   Name=UNIFSS   Frequency=1   Value=1
 
TABLE:  "FUNCTION - TIME HISTORY - USER"
   Name=RAMPTH   Time=0   Value=0
   Name=RAMPTH   Time=1   Value=1
   Name=RAMPTH   Time=4   Value=1
   Name=UNIFTH   Time=0   Value=1
   Name=UNIFTH   Time=1   Value=1
 
TABLE:  "GROUPS 1 - DEFINITIONS"
   GroupName=ALL   Selection=Yes   SectionCut=Yes   Steel=Yes   Concrete=Yes   Aluminum=Yes   ColdFormed=Yes   Stage=Yes   Bridge=Yes   AutoSeismic=No   AutoWind=No   SelDesSteel=No   SelDesAlum=No   SelDesCold=No   MassWeight=Yes   Color=Red
   GroupName=TTX_WALL   Selection=Yes   SectionCut=Yes   Steel=Yes   Concrete=Yes   Aluminum=Yes   ColdFormed=Yes   Stage=Yes   Bridge=Yes   AutoSeismic=No   AutoWind=No   SelDesSteel=No   SelDesAlum=No   SelDesCold=No   MassWeight=Yes   Color=Cyan
 
TABLE:  "GROUPS 2 - ASSIGNMENTS"
 
TABLE:  "JOINT COORDINATES"
   Joint=1   CoordSys=GLOBAL   CoordType=Cartesian   XorR=1.79328593414918   Y=-1.54852635508797E-07   Z=4.96380188152066   SpecialJt=No
   Joint=2   CoordSys=GLOBAL   CoordType=Cartesian   XorR=0.763250849682382   Y=-0.120887043769187   Z=4.19179820597256   SpecialJt=No
   Joint=3   CoordSys=GLOBAL   CoordType=Cartesian   XorR=2.73644124311148   Y=0.433409469688488   Z=5.06991613660886   SpecialJt=No
   Joint=4   CoordSys=GLOBAL   CoordType=Cartesian   XorR=-1.54852633557771E-07   Y=-1.79328593414917   Z=4.96380188152066   SpecialJt=No
   Joint=5   CoordSys=GLOBAL   CoordType=Cartesian   XorR=-0.120887043769187   Y=-0.763250849682381   Z=4.19179820597256   SpecialJt=No
   Joint=6   CoordSys=GLOBAL   CoordType=Cartesian   XorR=-3.7114548647653   Y=5.88891244014359E-08   Z=4.62393649725648   SpecialJt=No
   Joint=7   CoordSys=GLOBAL   CoordType=Cartesian   XorR=-2.73644128788527   Y=0.433409453684941   Z=5.06991612961067   SpecialJt=No
   Joint=8   CoordSys=GLOBAL   CoordType=Cartesian   XorR=-4.50716360254407   Y=-0.713864384618593   Z=3.64512466660093   SpecialJt=No
   Joint=9   CoordSys=GLOBAL   CoordType=Cartesian   XorR=-3.52980348875705   Y=1.14690200361562   Z=4.62393653396671   SpecialJt=No
   Joint=10   CoordSys=GLOBAL   CoordType=Cartesian   XorR=-2.46857944601522   Y=1.25780373798586   Z=5.06991612815777   SpecialJt=No
   Joint=11   CoordSys=GLOBAL   CoordType=Cartesian   XorR=-4.50716368217966   Y=0.713864265317878   Z=3.64512457201793   SpecialJt=No
   Joint=12   CoordSys=GLOBAL   CoordType=Cartesian   XorR=-3.00263006707052   Y=2.18153834184788   Z=4.62393653597685   SpecialJt=No
   Joint=13   CoordSys=GLOBAL   CoordType=Cartesian   XorR=-1.95907562787543   Y=1.959075765785   Z=5.06991611461844   SpecialJt=No
   Joint=14   CoordSys=GLOBAL   CoordType=Cartesian   XorR=-4.06597104055898   Y=2.07171522837618   Z=3.64512494464563   SpecialJt=No
   Joint=15   CoordSys=GLOBAL   CoordType=Cartesian   XorR=-2.18153830881608   Y=3.00263017625664   Z=4.62393648042346   SpecialJt=No
   Joint=16   CoordSys=GLOBAL   CoordType=Cartesian   XorR=-1.25780389939975   Y=2.46857937811192   Z=5.0699161260143   SpecialJt=No
   Joint=17   CoordSys=GLOBAL   CoordType=Cartesian   XorR=-3.22677274212547   Y=3.22677275871804   Z=3.645124897041   SpecialJt=No
   Joint=18   CoordSys=GLOBAL   CoordType=Cartesian   XorR=-1.14690225963804   Y=3.52980335872528   Z=4.62393656987951   SpecialJt=No
   Joint=19   CoordSys=GLOBAL   CoordType=Cartesian   XorR=-0.433409469688488   Y=2.73644124311148   Z=5.06991613660886   SpecialJt=No
   Joint=20   CoordSys=GLOBAL   CoordType=Cartesian   XorR=-2.07171529889208   Y=4.06597107750555   Z=3.64512484227309   SpecialJt=No
# ... 120 like lines cut
 
TABLE:  "JOINT PATTERN DEFINITIONS"
   Pattern=Default
 
TABLE:  "LOAD CASE DEFINITIONS"
   Case=DEAD   Type=LinStatic   InitialCond=Zero   DesTypeOpt="Prog Det"   DesignType=DEAD   DesActOpt="Prog Det"   DesignAct=Non-Composite   AutoType=None   RunCase=Yes
   Case=MODAL   Type=LinModal   InitialCond=Zero   DesTypeOpt="Prog Det"   DesignType=OTHER   DesActOpt="Prog Det"   DesignAct=Other   AutoType=None   RunCase=Yes
 
TABLE:  "LOAD PATTERN DEFINITIONS"
   LoadPat=DEAD   DesignType=DEAD   SelfWtMult=1
 
TABLE:  "MASS SOURCE"
   MassSource=MSSSRC1   Elements=Yes   Masses=Yes   Loads=No   IsDefault=Yes
 
TABLE:  "MATERIAL PROPERTIES 01 - GENERAL"
   Material=4000Psi   Type=Concrete   SymType=Isotropic   TempDepend=No   Color=Cyan   Notes="Customary f'c 4000 psi 1/26/2015 2:18:33 PM"
   Material=A36   Type=Steel   SymType=Isotropic   TempDepend=No   Color=Blue   Notes="ASTM A36 added 1/26/2015 2:18:45 PM"
   Material=A500GrB42   Type=Steel   SymType=Isotropic   TempDepend=No   Color=Cyan   Notes="ASTM A500 Grade B Fy=42 ksi added 1/26/2015 2:18:45 PM"
   Material=A500GrB46   Type=Steel   SymType=Isotropic   TempDepend=No   Color=Red   Notes="ASTM A500 Grade B Fy=46 ksi added 1/26/2015 2:18:45 PM"
   Material=A53GrB   Type=Steel   SymType=Isotropic   TempDepend=No   Color=Green   Notes="ASTM A53 Grade B added 1/26/2015 2:18:45 PM"
   Material=A572Gr50   Type=Steel   SymType=Isotropic   TempDepend=No   Color=Magenta   Notes="ASTM A572 Grade 50 added 1/26/2015 2:18:45 PM"
   Material=A913Gr50   Type=Steel   SymType=Isotropic   TempDepend=No   Color=Yellow   Notes="ASTM A913 Grade 50 added 1/26/2015 2:18:45 PM"
   Material=A992Fy50   Type=Steel   SymType=Isotropic   TempDepend=No   Color=Green   Notes="ASTM A992 Grade 50 1/26/2015 2:18:33 PM"
 
TABLE:  "MATERIAL PROPERTIES 02 - BASIC MECHANICAL PROPERTIES"
   Material=4000Psi   UnitWeight=23.5631216161854   UnitMass=2.40276960558926   E1=24855578.0600518   G12=10356490.8583549   U12=0.2   A1=0.0000099
   Material=A36   UnitWeight=76.9728639422648   UnitMass=7.84904737995992   E1=199947978.795958   G12=76903068.767676   U12=0.3   A1=0.0000117
   Material=A500GrB42   UnitWeight=76.9728639422648   UnitMass=7.84904737995992   E1=199947978.795958   G12=76903068.767676   U12=0.3   A1=0.0000117
   Material=A500GrB46   UnitWeight=76.9728639422648   UnitMass=7.84904737995992   E1=199947978.795958   G12=76903068.767676   U12=0.3   A1=0.0000117
   Material=A53GrB   UnitWeight=76.9728639422648   UnitMass=7.84904737995992   E1=199947978.795958   G12=76903068.767676   U12=0.3   A1=0.0000117
   Material=A572Gr50   UnitWeight=76.9728639422648   UnitMass=7.84904737995992   E1=199947978.795958   G12=76903068.767676   U12=0.3   A1=0.0000117
   Material=A913Gr50   UnitWeight=76.9728639422648   UnitMass=7.84904737995992   E1=199947978.795958   G12=76903068.767676   U12=0.3   A1=0.0000117
   Material=A992Fy50   UnitWeight=76.9728639422648   UnitMass=7.84904737995992   E1=199947978.795958   G12=76903068.767676   U12=0.3   A1=0.0000117
 
TABLE:  "MATERIAL PROPERTIES 03A - STEEL DATA"
   Material=A36   Fy=248211.284022568   Fu=399895.957591915   EffFy=372316.926033852   EffFu=439885.553351107   SSCurveOpt=Simple   SSHysType=Kinematic   SHard=0.02   SMax=0.14   SRup=0.2   FinalSlope=-0.1
   Material=A500GrB42   Fy=289579.831359663   Fu=399895.957591915   EffFy=318537.814495629   EffFu=439885.553351107   SSCurveOpt=Simple   SSHysType=Kinematic   SHard=0.02   SMax=0.14   SRup=0.2   FinalSlope=-0.1
   Material=A500GrB46   Fy=317158.862917726   Fu=399895.957591915   EffFy=348874.749209498   EffFu=439885.553351107   SSCurveOpt=Simple   SSHysType=Kinematic   SHard=0.018   SMax=0.12   SRup=0.18   FinalSlope=-0.1
   Material=A53GrB   Fy=241316.526133052   Fu=413685.473370947   EffFy=265448.178746358   EffFu=455054.020708041   SSCurveOpt=Simple   SSHysType=Kinematic   SHard=0.02   SMax=0.14   SRup=0.2   FinalSlope=-0.1
   Material=A572Gr50   Fy=344737.894475789   Fu=448159.262818526   EffFy=379211.683923368   EffFu=492975.189100378   SSCurveOpt=Simple   SSHysType=Kinematic   SHard=0.015   SMax=0.11   SRup=0.17   FinalSlope=-0.1
   Material=A913Gr50   Fy=344737.894475789   Fu=413685.473370947   EffFy=379211.683923368   EffFu=455054.020708041   SSCurveOpt=Simple   SSHysType=Kinematic   SHard=0.015   SMax=0.11   SRup=0.17   FinalSlope=-0.1
   Material=A992Fy50   Fy=344737.894475789   Fu=448159.262818526   EffFy=379211.683923368   EffFu=492975.189100378   SSCurveOpt=Simple   SSHysType=Kinematic   SHard=0.015   SMax=0.11   SRup=0.17   FinalSlope=-0.1
 
TABLE:  "MATERIAL PROPERTIES 03B - CONCRETE DATA"
   Material=4000Psi   Fc=27579.0315580631   LtWtConc=No   SSCurveOpt=Mander   SSHysType=Takeda   SFc=0.00221914   SCap=0.005   FinalSlope=-0.1   FAngle=0   DAngle=0
 
TABLE:  "MATERIAL PROPERTIES 06 - DAMPING PARAMETERS"
   Material=4000Psi   ModalRatio=0   VisMass=0   VisStiff=0   HysMass=0   HysStiff=0
   Material=A36   ModalRatio=0   VisMass=0   VisStiff=0   HysMass=0   HysStiff=0
   Material=A500GrB42   ModalRatio=0   VisMass=0   VisStiff=0   HysMass=0   HysStiff=0
   Material=A500GrB46   ModalRatio=0   VisMass=0   VisStiff=0   HysMass=0   HysStiff=0
   Material=A53GrB   ModalRatio=0   VisMass=0   VisStiff=0   HysMass=0   HysStiff=0
   Material=A572Gr50   ModalRatio=0   VisMass=0   VisStiff=0   HysMass=0   HysStiff=0
   Material=A913Gr50   ModalRatio=0   VisMass=0   VisStiff=0   HysMass=0   HysStiff=0
   Material=A992Fy50   ModalRatio=0   VisMass=0   VisStiff=0   HysMass=0   HysStiff=0
 
TABLE:  "OPTIONS - COLORS - DISPLAY"
   DeviceType=Screen   Points=Blue   LinesFrame=Blue   LinesFrmDL=Blue   LinesCable=Green   LinesTendon=Green   SpringLinks=Green   Restraints=Green   Releases=Green   Axes=Cyan   Text=Black   ShadowLines=Gray8Dark   GuideLines=Gray8Dark _
        Highlight=Red   Selection=10504778   AreaFillBot=Red   AreaFillTop=16744703   AreaFillSd=Red   AreaEdge=DarkRed   SolidF1=Red   SolidF2=Blue   SolidF3=Green   SolidF4=Yellow   SolidF5=White   SolidF6=Cyan   SolidEdge=DarkRed _
        Floor=Gray4   Background=White   BGLowLeft=White   BGLowRight=White   BGUpRight=White   Darkness=0.5
   DeviceType=Printer   Points=Gray8Dark   LinesFrame=Black   LinesFrmDL=Gray4   LinesCable=Black   LinesTendon=Black   SpringLinks=Gray8Dark   Restraints=Gray8Dark   Releases=Gray4   Axes=Black   Text=Black   ShadowLines=Gray4 _
        GuideLines=Gray4   Highlight=Black   Selection=Black   AreaFillBot=Gray4   AreaFillTop=Gray8Dark   AreaFillSd=Gray4   AreaEdge=Black   SolidF1=Gray1Light   SolidF2=Gray2   SolidF3=Gray3   SolidF4=Gray4   SolidF5=Gray5 _
        SolidF6=Gray6   SolidEdge=Black   Floor=Gray4   Background=White   BGLowLeft=White   BGLowRight=White   BGUpRight=White   Darkness=0.5
   DeviceType="Color Printer"   Points=Blue   LinesFrame=Blue   LinesFrmDL=Blue   LinesCable=Green   LinesTendon=Green   SpringLinks=Green   Restraints=Green   Releases=Green   Axes=Cyan   Text=Black   ShadowLines=Gray8Dark _
        GuideLines=Gray8Dark   Highlight=Red   Selection=10504778   AreaFillBot=Red   AreaFillTop=16744703   AreaFillSd=Red   AreaEdge=DarkRed   SolidF1=Red   SolidF2=Blue   SolidF3=Green   SolidF4=Yellow   SolidF5=White   SolidF6=Cyan _
        SolidEdge=DarkRed   Floor=Gray4   Background=White   BGLowLeft=White   BGLowRight=White   BGUpRight=White   Darkness=0.5
 
TABLE:  "OPTIONS - COLORS - OUTPUT"
   DeviceType=Screen   Contour1=13107400   Contour2=6553828   Contour3=Red   Contour4=16639   Contour5=Orange   Contour6=43775   Contour7=54527   Contour8=Yellow   Contour9=65408   Contour10=Green   Contour11=8453888   Contour12=Cyan _
        Contour13=16755200   Contour14=16733440   Contour15=Blue   Transpare=0.5   Ratio1=Cyan   Ratio2=Green   Ratio3=Yellow   Ratio4=Orange   Ratio5=Red   RatioNotD=Gray4   RatioNotC=Red   RatioVal1=0.5   RatioVal2=0.7   RatioVal3=0.9 _
        RatioVal4=1   DFillPos=Blue   DFillNeg=Red   DFillRPos=Green   DFillRNeg=Green
   DeviceType=Printer   Contour1=Black   Contour2=3158064   Contour3=4210752   Contour4=5263440   Contour5=6316128   Contour6=7368816   Contour7=Gray8Dark   Contour8=Gray7   Contour9=Gray6   Contour10=Gray5   Contour11=Gray4 _
        Contour12=Gray3   Contour13=Gray2   Contour14=Gray1Light   Contour15=White   Transpare=0   Ratio1=Gray2   Ratio2=Gray4   Ratio3=Gray8Dark   Ratio4=4210752   Ratio5=Black   RatioNotD=Gray4   RatioNotC=Black   RatioVal1=0.5 _
        RatioVal2=0.7   RatioVal3=0.9   RatioVal4=1   DFillPos=Gray8Dark   DFillNeg=Gray8Dark   DFillRPos=4210752   DFillRNeg=4210752
   DeviceType="Color Printer"   Contour1=13107400   Contour2=6553828   Contour3=Red   Contour4=16639   Contour5=Orange   Contour6=43775   Contour7=54527   Contour8=Yellow   Contour9=65408   Contour10=Green   Contour11=8453888 _
        Contour12=Cyan   Contour13=16755200   Contour14=16733440   Contour15=Blue   Transpare=0   Ratio1=Cyan   Ratio2=Green   Ratio3=Yellow   Ratio4=Orange   Ratio5=Red   RatioNotD=Gray4   RatioNotC=Red   RatioVal1=0.5   RatioVal2=0.7 _
        RatioVal3=0.9   RatioVal4=1   DFillPos=Blue   DFillNeg=Red   DFillRPos=Green   DFillRNeg=Green
 
TABLE:  "PREFERENCES - ALUMINUM DESIGN - AA-ASD 2000"
   THDesign=Envelopes   FrameType="Moment Frame"   SRatioLimit=1   MaxIter=1   LatFact=1.33333333333333   UseLatFact=No   Bridge=No
 
TABLE:  "PREFERENCES - COLD FORMED DESIGN - AISI-ASD96"
   THDesign=Envelopes   FrameType="Braced Frame"   SRatioLimit=1   MaxIter=1   OmegaBS=1.67   OmegaBUS=1.67   OmegaBLTB=1.67   OmegaVS=1.67   OmegaVNS=1.5   OmegaT=1.67   OmegaC=1.8
 
TABLE:  "PREFERENCES - CONCRETE DESIGN - ACI 318-11"
   THDesign=Envelopes   NumCurves=24   NumPoints=11   MinEccen=Yes   PatLLF=0.75   UFLimit=0.95   SeisCat=D   PhiT=0.9   PhiCTied=0.65   PhiCSpiral=0.75   PhiV=0.75   PhiVSeismic=0.6   PhiVJoint=0.85
 
TABLE:  "PREFERENCES - DIMENSIONAL"
   MergeTol=0.001   FineGrid=0.25   Nudge=0.25   SelectTol=3   SnapTol=12   SLineThick=2   PLineThick=4   MaxFont=8   MinFont=3   AutoZoom=10   ShrinkFact=70   TextFileLen=240
 
TABLE:  "PREFERENCES - STEEL DESIGN - AISC 360-10"
   THDesign=Envelopes   FrameType=SMF   PatLLF=0.75   SRatioLimit=0.95   MaxIter=1   SDC=D   SeisCode=Yes   SeisLoad=Yes   ImpFactor=1   SystemRho=1   SystemSds=0.5   SystemR=8   SystemCd=5.5   Omega0=3   Provision=LRFD _
        AMethod="Direct Analysis"   SOMethod="General 2nd Order"   SRMethod="Tau-b Fixed"   NLCoeff=0.002   PhiB=0.9   PhiC=0.9   PhiTY=0.9   PhiTF=0.75   PhiV=0.9   PhiVRolledI=1   PhiVT=0.9   PlugWeld=Yes   HSSWelding=ERW   HSSReduceT=No _
        CheckDefl=No   DLRat=120   SDLAndLLRat=120   LLRat=360   TotalRat=240   NetRat=240
 
TABLE:  "PROGRAM CONTROL"
   ProgramName=SAP2000   Version=16.1.1   CurrUnits="KN, m, C"   SteelCode="AISC 360-10"   ConcCode="ACI 318-11"   AlumCode="AA-ASD 2000"   ColdCode=AISI-ASD96   RegenHinge=Yes
 
TABLE:  "PROJECT INFORMATION"
   Item="Company Name"   Data="Thornton Tomasetti, Inc."
   Item="Client Name"
   Item="Project Name"
   Item="Project Number"
   Item="Model Name"
   Item="Model Description"
   Item="Revision Number"
   Item="Frame Type"
   Item=Engineer
   Item=Checker
   Item=Supervisor
   Item="Issue Code"
   Item="Design Code"
 
TABLE:  "REBAR SIZES"
   RebarID=#2   Area=0.000032258   Diameter=0.00635
   RebarID=#3   Area=7.09675996154547E-05   Diameter=0.009525
   RebarID=#4   Area=1.29032001922727E-04   Diameter=0.0127
   RebarID=#5   Area=1.99999601538181E-04   Diameter=0.015875
   RebarID=#6   Area=2.83870398461819E-04   Diameter=0.01905
   RebarID=#7   Area=3.87096015381813E-04   Diameter=0.022225
   RebarID=#8   Area=5.09676413843632E-04   Diameter=0.0254
   RebarID=#9   Area=0.00064516   Diameter=2.86512005329132E-02
   RebarID=#10   Area=8.1935318769455E-04   Diameter=3.22579995155334E-02
   RebarID=#11   Area=1.00644956308365E-03   Diameter=3.58139991521835E-02
   RebarID=#14   Area=0.00145161   Diameter=4.30021989583969E-02
   RebarID=#18   Area=0.00258064   Diameter=5.73277992248535E-02
   RebarID=10M   Area=1.00000004162606E-04   Diameter=1.13000003604438E-02
   RebarID=15M   Area=2.00000008325212E-04   Diameter=1.60000002402959E-02
   RebarID=20M   Area=3.00000012487818E-04   Diameter=1.95000002928606E-02
   RebarID=25M   Area=5.00000020813031E-04   Diameter=2.52000011414055E-02
   RebarID=30M   Area=7.00000029138243E-04   Diameter=2.99000000675832E-02
   RebarID=35M   Area=1.00000004162606E-03   Diameter=3.57000012990997E-02
   RebarID=45M   Area=1.50000006243909E-03   Diameter=4.37000014192476E-02
   RebarID=55M   Area=2.50000010406515E-03   Diameter=0.056400002372922
   RebarID=6d   Area=2.83000004150781E-05   Diameter=6.00000009011096E-03
   RebarID=8d   Area=5.03000013308514E-05   Diameter=8.00000012014795E-03
   RebarID=10d   Area=7.85000032676458E-05   Diameter=1.00000001501849E-02
   RebarID=12d   Area=1.13000004703745E-04   Diameter=1.20000001802219E-02
   RebarID=14d   Area=1.54000006410413E-04   Diameter=1.40000002102589E-02
   RebarID=16d   Area=2.01000008366838E-04   Diameter=1.60000002402959E-02
   RebarID=20d   Area=3.14000013070583E-04   Diameter=2.00000003003699E-02
   RebarID=25d   Area=4.91000020438396E-04   Diameter=2.50000003754623E-02
   RebarID=26d   Area=5.31000022103439E-04   Diameter=2.60000003904808E-02
   RebarID=28d   Area=6.16000025641654E-04   Diameter=2.80000004205178E-02
   RebarID=N12   Area=1.13000004703745E-04   Diameter=1.20000001802219E-02
   RebarID=N16   Area=2.01000008366838E-04   Diameter=1.60000002402959E-02
   RebarID=N20   Area=3.14000013070583E-04   Diameter=2.00000003003699E-02
   RebarID=N24   Area=4.5200001881498E-04   Diameter=2.40000003604438E-02
   RebarID=N28   Area=6.16000025641654E-04   Diameter=2.80000004205178E-02
   RebarID=N32   Area=8.04000033467353E-04   Diameter=3.20000004805918E-02
   RebarID=N36   Area=1.02000004245858E-03   Diameter=3.60000005406658E-02
 
END TABLE DATA
