File C:\Users\AGarciaPuyol\Documents\GitHub\DynamoSAP\samples\3a_RunAnalysis.$2k was saved on 1/26/15 at 14:37:42
 
TABLE:  "ACTIVE DEGREES OF FREEDOM"
   UX=Yes   UY=Yes   UZ=Yes   RX=Yes   RY=Yes   RZ=Yes
 
TABLE:  "ANALYSIS OPTIONS"
   Solver=Advanced   SolverProc=Auto   Force32Bit=No   StiffCase=None   GeomMod=No
 
TABLE:  "AUTO WAVE 3 - WAVE CHARACTERISTICS - GENERAL"
   WaveChar=Default   WaveType="From Theory"   KinFactor=1   SWaterDepth=45   WaveHeight=18   WavePeriod=12   WaveTheory=Linear
 
TABLE:  "CASE - MODAL 1 - GENERAL"
   Case=MODAL   ModeType=Eigen   MaxNumModes=12   MinNumModes=1   EigenShift=0   EigenCutoff=0   EigenTol=0.000000001   AutoShift=Yes
 
TABLE:  "CASE - STATIC 1 - LOAD ASSIGNMENTS"
   Case=DEAD   LoadType="Load pattern"   LoadName=DEAD   LoadSF=1
   Case=Live_Load_Sample   LoadType="Load pattern"   LoadName=Live_Load_Sample   LoadSF=1
   Case=Dead_Load_Sample   LoadType="Load pattern"   LoadName=Dead_Load_Sample   LoadSF=1
   Case=Move_Load_Sample   LoadType="Load pattern"   LoadName=Move_Load_Sample   LoadSF=1
   Case=Load_Case_Sample   LoadType="Load pattern"   LoadName=Live_Load_Sample   LoadSF=1.2
   Case=Load_Case_Sample   LoadType="Load pattern"   LoadName=Dead_Load_Sample   LoadSF=1.3
   Case=Load_Case_Sample   LoadType="Load pattern"   LoadName=Move_Load_Sample   LoadSF=1.2
 
TABLE:  "CONNECTIVITY - FRAME"
   Frame=dyn_124   JointI=2   JointJ=7   IsCurved=No
   Frame=dyn_125   JointI=7   JointJ=12   IsCurved=No
   Frame=dyn_126   JointI=12   JointJ=17   IsCurved=No
   Frame=dyn_127   JointI=22   JointJ=27   IsCurved=No
   Frame=dyn_128   JointI=27   JointJ=32   IsCurved=No
   Frame=dyn_129   JointI=32   JointJ=37   IsCurved=No
   Frame=dyn_130   JointI=42   JointJ=47   IsCurved=No
   Frame=dyn_131   JointI=47   JointJ=52   IsCurved=No
   Frame=dyn_132   JointI=52   JointJ=57   IsCurved=No
   Frame=dyn_133   JointI=62   JointJ=67   IsCurved=No
   Frame=dyn_134   JointI=67   JointJ=72   IsCurved=No
   Frame=dyn_135   JointI=72   JointJ=77   IsCurved=No
   Frame=dyn_136   JointI=82   JointJ=87   IsCurved=No
   Frame=dyn_137   JointI=87   JointJ=92   IsCurved=No
   Frame=dyn_138   JointI=92   JointJ=97   IsCurved=No
   Frame=dyn_139   JointI=2   JointJ=22   IsCurved=No
   Frame=dyn_140   JointI=22   JointJ=42   IsCurved=No
   Frame=dyn_141   JointI=42   JointJ=62   IsCurved=No
   Frame=dyn_142   JointI=62   JointJ=82   IsCurved=No
   Frame=dyn_143   JointI=7   JointJ=27   IsCurved=No
# ... 184 like lines cut
 
TABLE:  "COORDINATE SYSTEMS"
   Name=GLOBAL   Type=Cartesian   X=0   Y=0   Z=0   AboutZ=0   AboutY=0   AboutX=0
 
TABLE:  "DATABASE DOCUMENTATION"
 
TABLE:  "DATABASE FORMAT TYPES"
   UnitsCurr=Yes   OverrideE=No
 
TABLE:  "FRAME AUTO MESH ASSIGNMENTS"
   Frame=dyn_124   AutoMesh=Yes   AtJoints=Yes   AtFrames=No   NumSegments=0   MaxLength=0   MaxDegrees=0
   Frame=dyn_125   AutoMesh=Yes   AtJoints=Yes   AtFrames=No   NumSegments=0   MaxLength=0   MaxDegrees=0
   Frame=dyn_126   AutoMesh=Yes   AtJoints=Yes   AtFrames=No   NumSegments=0   MaxLength=0   MaxDegrees=0
   Frame=dyn_127   AutoMesh=Yes   AtJoints=Yes   AtFrames=No   NumSegments=0   MaxLength=0   MaxDegrees=0
   Frame=dyn_128   AutoMesh=Yes   AtJoints=Yes   AtFrames=No   NumSegments=0   MaxLength=0   MaxDegrees=0
   Frame=dyn_129   AutoMesh=Yes   AtJoints=Yes   AtFrames=No   NumSegments=0   MaxLength=0   MaxDegrees=0
   Frame=dyn_130   AutoMesh=Yes   AtJoints=Yes   AtFrames=No   NumSegments=0   MaxLength=0   MaxDegrees=0
   Frame=dyn_131   AutoMesh=Yes   AtJoints=Yes   AtFrames=No   NumSegments=0   MaxLength=0   MaxDegrees=0
   Frame=dyn_132   AutoMesh=Yes   AtJoints=Yes   AtFrames=No   NumSegments=0   MaxLength=0   MaxDegrees=0
   Frame=dyn_133   AutoMesh=Yes   AtJoints=Yes   AtFrames=No   NumSegments=0   MaxLength=0   MaxDegrees=0
   Frame=dyn_134   AutoMesh=Yes   AtJoints=Yes   AtFrames=No   NumSegments=0   MaxLength=0   MaxDegrees=0
   Frame=dyn_135   AutoMesh=Yes   AtJoints=Yes   AtFrames=No   NumSegments=0   MaxLength=0   MaxDegrees=0
   Frame=dyn_136   AutoMesh=Yes   AtJoints=Yes   AtFrames=No   NumSegments=0   MaxLength=0   MaxDegrees=0
   Frame=dyn_137   AutoMesh=Yes   AtJoints=Yes   AtFrames=No   NumSegments=0   MaxLength=0   MaxDegrees=0
   Frame=dyn_138   AutoMesh=Yes   AtJoints=Yes   AtFrames=No   NumSegments=0   MaxLength=0   MaxDegrees=0
   Frame=dyn_139   AutoMesh=Yes   AtJoints=Yes   AtFrames=No   NumSegments=0   MaxLength=0   MaxDegrees=0
   Frame=dyn_140   AutoMesh=Yes   AtJoints=Yes   AtFrames=No   NumSegments=0   MaxLength=0   MaxDegrees=0
   Frame=dyn_141   AutoMesh=Yes   AtJoints=Yes   AtFrames=No   NumSegments=0   MaxLength=0   MaxDegrees=0
   Frame=dyn_142   AutoMesh=Yes   AtJoints=Yes   AtFrames=No   NumSegments=0   MaxLength=0   MaxDegrees=0
   Frame=dyn_143   AutoMesh=Yes   AtJoints=Yes   AtFrames=No   NumSegments=0   MaxLength=0   MaxDegrees=0
# ... 184 like lines cut
 
TABLE:  "FRAME DESIGN PROCEDURES"
   Frame=dyn_124   DesignProc="From Material"
   Frame=dyn_125   DesignProc="From Material"
   Frame=dyn_126   DesignProc="From Material"
   Frame=dyn_127   DesignProc="From Material"
   Frame=dyn_128   DesignProc="From Material"
   Frame=dyn_129   DesignProc="From Material"
   Frame=dyn_130   DesignProc="From Material"
   Frame=dyn_131   DesignProc="From Material"
   Frame=dyn_132   DesignProc="From Material"
   Frame=dyn_133   DesignProc="From Material"
   Frame=dyn_134   DesignProc="From Material"
   Frame=dyn_135   DesignProc="From Material"
   Frame=dyn_136   DesignProc="From Material"
   Frame=dyn_137   DesignProc="From Material"
   Frame=dyn_138   DesignProc="From Material"
   Frame=dyn_139   DesignProc="From Material"
   Frame=dyn_140   DesignProc="From Material"
   Frame=dyn_141   DesignProc="From Material"
   Frame=dyn_142   DesignProc="From Material"
   Frame=dyn_143   DesignProc="From Material"
# ... 104 like lines cut
   Frame=dyn_360   DesignProc="No Design"
   Frame=dyn_361   DesignProc="From Material"
   Frame=dyn_362   DesignProc="From Material"
   Frame=dyn_363   DesignProc="From Material"
   Frame=dyn_364   DesignProc="From Material"
   Frame=dyn_365   DesignProc="From Material"
   Frame=dyn_366   DesignProc="From Material"
   Frame=dyn_367   DesignProc="From Material"
   Frame=dyn_368   DesignProc="From Material"
   Frame=dyn_369   DesignProc="From Material"
   Frame=dyn_370   DesignProc="From Material"
   Frame=dyn_371   DesignProc="From Material"
   Frame=dyn_372   DesignProc="From Material"
   Frame=dyn_373   DesignProc="From Material"
   Frame=dyn_374   DesignProc="From Material"
   Frame=dyn_375   DesignProc="From Material"
   Frame=dyn_376   DesignProc="From Material"
   Frame=dyn_377   DesignProc="From Material"
   Frame=dyn_378   DesignProc="From Material"
   Frame=dyn_379   DesignProc="From Material"
   Frame=dyn_380   DesignProc="From Material"
# ... 59 like lines cut
 
TABLE:  "FRAME INSERTION POINT ASSIGNMENTS"
   Frame=dyn_124   CardinalPt="5 (middle center)"   Mirror2=No   Mirror3=No   Transform=Yes
   Frame=dyn_125   CardinalPt="5 (middle center)"   Mirror2=No   Mirror3=No   Transform=Yes
   Frame=dyn_126   CardinalPt="5 (middle center)"   Mirror2=No   Mirror3=No   Transform=Yes
   Frame=dyn_127   CardinalPt="5 (middle center)"   Mirror2=No   Mirror3=No   Transform=Yes
   Frame=dyn_128   CardinalPt="5 (middle center)"   Mirror2=No   Mirror3=No   Transform=Yes
   Frame=dyn_129   CardinalPt="5 (middle center)"   Mirror2=No   Mirror3=No   Transform=Yes
   Frame=dyn_130   CardinalPt="5 (middle center)"   Mirror2=No   Mirror3=No   Transform=Yes
   Frame=dyn_131   CardinalPt="5 (middle center)"   Mirror2=No   Mirror3=No   Transform=Yes
   Frame=dyn_132   CardinalPt="5 (middle center)"   Mirror2=No   Mirror3=No   Transform=Yes
   Frame=dyn_133   CardinalPt="5 (middle center)"   Mirror2=No   Mirror3=No   Transform=Yes
   Frame=dyn_134   CardinalPt="5 (middle center)"   Mirror2=No   Mirror3=No   Transform=Yes
   Frame=dyn_135   CardinalPt="5 (middle center)"   Mirror2=No   Mirror3=No   Transform=Yes
   Frame=dyn_136   CardinalPt="5 (middle center)"   Mirror2=No   Mirror3=No   Transform=Yes
   Frame=dyn_137   CardinalPt="5 (middle center)"   Mirror2=No   Mirror3=No   Transform=Yes
   Frame=dyn_138   CardinalPt="5 (middle center)"   Mirror2=No   Mirror3=No   Transform=Yes
   Frame=dyn_139   CardinalPt="5 (middle center)"   Mirror2=No   Mirror3=No   Transform=Yes
   Frame=dyn_140   CardinalPt="5 (middle center)"   Mirror2=No   Mirror3=No   Transform=Yes
   Frame=dyn_141   CardinalPt="5 (middle center)"   Mirror2=No   Mirror3=No   Transform=Yes
   Frame=dyn_142   CardinalPt="5 (middle center)"   Mirror2=No   Mirror3=No   Transform=Yes
   Frame=dyn_143   CardinalPt="5 (middle center)"   Mirror2=No   Mirror3=No   Transform=Yes
# ... 184 like lines cut
 
TABLE:  "FRAME LOADS - DISTRIBUTED"
   Frame=dyn_124   LoadPat=Dead_Load_Sample   CoordSys=GLOBAL   Type=Force   Dir="X Proj"   DistType=RelDist   RelDistA=0   RelDistB=1   AbsDistA=0   AbsDistB=300   FOverLA=-15   FOverLB=-15
   Frame=dyn_125   LoadPat=Dead_Load_Sample   CoordSys=GLOBAL   Type=Force   Dir="X Proj"   DistType=RelDist   RelDistA=0   RelDistB=1   AbsDistA=0   AbsDistB=300   FOverLA=-15   FOverLB=-15
   Frame=dyn_126   LoadPat=Dead_Load_Sample   CoordSys=GLOBAL   Type=Force   Dir="X Proj"   DistType=RelDist   RelDistA=0   RelDistB=1   AbsDistA=0   AbsDistB=300   FOverLA=-15   FOverLB=-15
   Frame=dyn_127   LoadPat=Dead_Load_Sample   CoordSys=GLOBAL   Type=Force   Dir="X Proj"   DistType=RelDist   RelDistA=0   RelDistB=1   AbsDistA=0   AbsDistB=300   FOverLA=-15   FOverLB=-15
   Frame=dyn_128   LoadPat=Dead_Load_Sample   CoordSys=GLOBAL   Type=Force   Dir="X Proj"   DistType=RelDist   RelDistA=0   RelDistB=1   AbsDistA=0   AbsDistB=300   FOverLA=-15   FOverLB=-15
   Frame=dyn_129   LoadPat=Dead_Load_Sample   CoordSys=GLOBAL   Type=Force   Dir="X Proj"   DistType=RelDist   RelDistA=0   RelDistB=1   AbsDistA=0   AbsDistB=300   FOverLA=-15   FOverLB=-15
   Frame=dyn_130   LoadPat=Dead_Load_Sample   CoordSys=GLOBAL   Type=Force   Dir="X Proj"   DistType=RelDist   RelDistA=0   RelDistB=1   AbsDistA=0   AbsDistB=300   FOverLA=-15   FOverLB=-15
   Frame=dyn_131   LoadPat=Dead_Load_Sample   CoordSys=GLOBAL   Type=Force   Dir="X Proj"   DistType=RelDist   RelDistA=0   RelDistB=1   AbsDistA=0   AbsDistB=300   FOverLA=-15   FOverLB=-15
   Frame=dyn_132   LoadPat=Dead_Load_Sample   CoordSys=GLOBAL   Type=Force   Dir="X Proj"   DistType=RelDist   RelDistA=0   RelDistB=1   AbsDistA=0   AbsDistB=300   FOverLA=-15   FOverLB=-15
   Frame=dyn_133   LoadPat=Dead_Load_Sample   CoordSys=GLOBAL   Type=Force   Dir="X Proj"   DistType=RelDist   RelDistA=0   RelDistB=1   AbsDistA=0   AbsDistB=300   FOverLA=-15   FOverLB=-15
   Frame=dyn_134   LoadPat=Dead_Load_Sample   CoordSys=GLOBAL   Type=Force   Dir="X Proj"   DistType=RelDist   RelDistA=0   RelDistB=1   AbsDistA=0   AbsDistB=300   FOverLA=-15   FOverLB=-15
   Frame=dyn_135   LoadPat=Dead_Load_Sample   CoordSys=GLOBAL   Type=Force   Dir="X Proj"   DistType=RelDist   RelDistA=0   RelDistB=1   AbsDistA=0   AbsDistB=300   FOverLA=-15   FOverLB=-15
   Frame=dyn_136   LoadPat=Dead_Load_Sample   CoordSys=GLOBAL   Type=Force   Dir="X Proj"   DistType=RelDist   RelDistA=0   RelDistB=1   AbsDistA=0   AbsDistB=300   FOverLA=-15   FOverLB=-15
   Frame=dyn_137   LoadPat=Dead_Load_Sample   CoordSys=GLOBAL   Type=Force   Dir="X Proj"   DistType=RelDist   RelDistA=0   RelDistB=1   AbsDistA=0   AbsDistB=300   FOverLA=-15   FOverLB=-15
   Frame=dyn_138   LoadPat=Dead_Load_Sample   CoordSys=GLOBAL   Type=Force   Dir="X Proj"   DistType=RelDist   RelDistA=0   RelDistB=1   AbsDistA=0   AbsDistB=300   FOverLA=-15   FOverLB=-15
   Frame=dyn_139   LoadPat=Dead_Load_Sample   CoordSys=GLOBAL   Type=Force   Dir="X Proj"   DistType=RelDist   RelDistA=0   RelDistB=1   AbsDistA=0   AbsDistB=500   FOverLA=-15   FOverLB=-15
   Frame=dyn_140   LoadPat=Dead_Load_Sample   CoordSys=GLOBAL   Type=Force   Dir="X Proj"   DistType=RelDist   RelDistA=0   RelDistB=1   AbsDistA=0   AbsDistB=500   FOverLA=-15   FOverLB=-15
   Frame=dyn_141   LoadPat=Dead_Load_Sample   CoordSys=GLOBAL   Type=Force   Dir="X Proj"   DistType=RelDist   RelDistA=0   RelDistB=1   AbsDistA=0   AbsDistB=500   FOverLA=-15   FOverLB=-15
   Frame=dyn_142   LoadPat=Dead_Load_Sample   CoordSys=GLOBAL   Type=Force   Dir="X Proj"   DistType=RelDist   RelDistA=0   RelDistB=1   AbsDistA=0   AbsDistB=500   FOverLA=-15   FOverLB=-15
   Frame=dyn_143   LoadPat=Dead_Load_Sample   CoordSys=GLOBAL   Type=Force   Dir="X Proj"   DistType=RelDist   RelDistA=0   RelDistB=1   AbsDistA=0   AbsDistB=500   FOverLA=-15   FOverLB=-15
# ... 104 like lines cut
 
TABLE:  "FRAME LOADS - POINT"
   Frame=dyn_360   LoadPat=Move_Load_Sample   CoordSys=GLOBAL   Type=Force   Dir=Z   DistType=RelDist   RelDist=0.5   AbsDist=175   Force=100
   Frame=dyn_361   LoadPat=Move_Load_Sample   CoordSys=GLOBAL   Type=Force   Dir=Z   DistType=RelDist   RelDist=0.5   AbsDist=175   Force=100
   Frame=dyn_362   LoadPat=Move_Load_Sample   CoordSys=GLOBAL   Type=Force   Dir=Z   DistType=RelDist   RelDist=0.5   AbsDist=175   Force=100
   Frame=dyn_363   LoadPat=Move_Load_Sample   CoordSys=GLOBAL   Type=Force   Dir=Z   DistType=RelDist   RelDist=0.5   AbsDist=175   Force=100
   Frame=dyn_364   LoadPat=Move_Load_Sample   CoordSys=GLOBAL   Type=Force   Dir=Z   DistType=RelDist   RelDist=0.5   AbsDist=175   Force=100
   Frame=dyn_365   LoadPat=Move_Load_Sample   CoordSys=GLOBAL   Type=Force   Dir=Z   DistType=RelDist   RelDist=0.5   AbsDist=175   Force=100
   Frame=dyn_366   LoadPat=Move_Load_Sample   CoordSys=GLOBAL   Type=Force   Dir=Z   DistType=RelDist   RelDist=0.5   AbsDist=175   Force=100
   Frame=dyn_367   LoadPat=Move_Load_Sample   CoordSys=GLOBAL   Type=Force   Dir=Z   DistType=RelDist   RelDist=0.5   AbsDist=175   Force=100
   Frame=dyn_368   LoadPat=Move_Load_Sample   CoordSys=GLOBAL   Type=Force   Dir=Z   DistType=RelDist   RelDist=0.5   AbsDist=175   Force=100
   Frame=dyn_369   LoadPat=Move_Load_Sample   CoordSys=GLOBAL   Type=Force   Dir=Z   DistType=RelDist   RelDist=0.5   AbsDist=175   Force=100
   Frame=dyn_370   LoadPat=Move_Load_Sample   CoordSys=GLOBAL   Type=Force   Dir=Z   DistType=RelDist   RelDist=0.5   AbsDist=175   Force=100
   Frame=dyn_371   LoadPat=Move_Load_Sample   CoordSys=GLOBAL   Type=Force   Dir=Z   DistType=RelDist   RelDist=0.5   AbsDist=175   Force=100
   Frame=dyn_372   LoadPat=Move_Load_Sample   CoordSys=GLOBAL   Type=Force   Dir=Z   DistType=RelDist   RelDist=0.5   AbsDist=175   Force=100
   Frame=dyn_373   LoadPat=Move_Load_Sample   CoordSys=GLOBAL   Type=Force   Dir=Z   DistType=RelDist   RelDist=0.5   AbsDist=175   Force=100
   Frame=dyn_374   LoadPat=Move_Load_Sample   CoordSys=GLOBAL   Type=Force   Dir=Z   DistType=RelDist   RelDist=0.5   AbsDist=175   Force=100
   Frame=dyn_375   LoadPat=Move_Load_Sample   CoordSys=GLOBAL   Type=Force   Dir=Z   DistType=RelDist   RelDist=0.5   AbsDist=175   Force=100
   Frame=dyn_376   LoadPat=Move_Load_Sample   CoordSys=GLOBAL   Type=Force   Dir=Z   DistType=RelDist   RelDist=0.5   AbsDist=175   Force=100
   Frame=dyn_377   LoadPat=Move_Load_Sample   CoordSys=GLOBAL   Type=Force   Dir=Z   DistType=RelDist   RelDist=0.5   AbsDist=175   Force=100
   Frame=dyn_378   LoadPat=Move_Load_Sample   CoordSys=GLOBAL   Type=Force   Dir=Z   DistType=RelDist   RelDist=0.5   AbsDist=175   Force=100
   Frame=dyn_379   LoadPat=Move_Load_Sample   CoordSys=GLOBAL   Type=Force   Dir=Z   DistType=RelDist   RelDist=0.5   AbsDist=175   Force=100
# ... 60 like lines cut
 
TABLE:  "FRAME LOAD TRANSFER OPTIONS"
   Frame=dyn_124   Transfer=Yes
   Frame=dyn_125   Transfer=Yes
   Frame=dyn_126   Transfer=Yes
   Frame=dyn_127   Transfer=Yes
   Frame=dyn_128   Transfer=Yes
   Frame=dyn_129   Transfer=Yes
   Frame=dyn_130   Transfer=Yes
   Frame=dyn_131   Transfer=Yes
   Frame=dyn_132   Transfer=Yes
   Frame=dyn_133   Transfer=Yes
   Frame=dyn_134   Transfer=Yes
   Frame=dyn_135   Transfer=Yes
   Frame=dyn_136   Transfer=Yes
   Frame=dyn_137   Transfer=Yes
   Frame=dyn_138   Transfer=Yes
   Frame=dyn_139   Transfer=Yes
   Frame=dyn_140   Transfer=Yes
   Frame=dyn_141   Transfer=Yes
   Frame=dyn_142   Transfer=Yes
   Frame=dyn_143   Transfer=Yes
# ... 184 like lines cut
 
TABLE:  "FRAME OUTPUT STATION ASSIGNMENTS"
   Frame=dyn_124   StationType=MaxStaSpcg   MaxStaSpcg=0.5   AddAtElmInt=Yes   AddAtPtLoad=Yes
   Frame=dyn_125   StationType=MaxStaSpcg   MaxStaSpcg=0.5   AddAtElmInt=Yes   AddAtPtLoad=Yes
   Frame=dyn_126   StationType=MaxStaSpcg   MaxStaSpcg=0.5   AddAtElmInt=Yes   AddAtPtLoad=Yes
   Frame=dyn_127   StationType=MaxStaSpcg   MaxStaSpcg=0.5   AddAtElmInt=Yes   AddAtPtLoad=Yes
   Frame=dyn_128   StationType=MaxStaSpcg   MaxStaSpcg=0.5   AddAtElmInt=Yes   AddAtPtLoad=Yes
   Frame=dyn_129   StationType=MaxStaSpcg   MaxStaSpcg=0.5   AddAtElmInt=Yes   AddAtPtLoad=Yes
   Frame=dyn_130   StationType=MaxStaSpcg   MaxStaSpcg=0.5   AddAtElmInt=Yes   AddAtPtLoad=Yes
   Frame=dyn_131   StationType=MaxStaSpcg   MaxStaSpcg=0.5   AddAtElmInt=Yes   AddAtPtLoad=Yes
   Frame=dyn_132   StationType=MaxStaSpcg   MaxStaSpcg=0.5   AddAtElmInt=Yes   AddAtPtLoad=Yes
   Frame=dyn_133   StationType=MaxStaSpcg   MaxStaSpcg=0.5   AddAtElmInt=Yes   AddAtPtLoad=Yes
   Frame=dyn_134   StationType=MaxStaSpcg   MaxStaSpcg=0.5   AddAtElmInt=Yes   AddAtPtLoad=Yes
   Frame=dyn_135   StationType=MaxStaSpcg   MaxStaSpcg=0.5   AddAtElmInt=Yes   AddAtPtLoad=Yes
   Frame=dyn_136   StationType=MaxStaSpcg   MaxStaSpcg=0.5   AddAtElmInt=Yes   AddAtPtLoad=Yes
   Frame=dyn_137   StationType=MaxStaSpcg   MaxStaSpcg=0.5   AddAtElmInt=Yes   AddAtPtLoad=Yes
   Frame=dyn_138   StationType=MaxStaSpcg   MaxStaSpcg=0.5   AddAtElmInt=Yes   AddAtPtLoad=Yes
   Frame=dyn_139   StationType=MaxStaSpcg   MaxStaSpcg=0.5   AddAtElmInt=Yes   AddAtPtLoad=Yes
   Frame=dyn_140   StationType=MaxStaSpcg   MaxStaSpcg=0.5   AddAtElmInt=Yes   AddAtPtLoad=Yes
   Frame=dyn_141   StationType=MaxStaSpcg   MaxStaSpcg=0.5   AddAtElmInt=Yes   AddAtPtLoad=Yes
   Frame=dyn_142   StationType=MaxStaSpcg   MaxStaSpcg=0.5   AddAtElmInt=Yes   AddAtPtLoad=Yes
   Frame=dyn_143   StationType=MaxStaSpcg   MaxStaSpcg=0.5   AddAtElmInt=Yes   AddAtPtLoad=Yes
# ... 104 like lines cut
   Frame=dyn_360   StationType=MinNumSta   MinNumSta=3   AddAtElmInt=Yes   AddAtPtLoad=Yes
   Frame=dyn_361   StationType=MinNumSta   MinNumSta=3   AddAtElmInt=Yes   AddAtPtLoad=Yes
   Frame=dyn_362   StationType=MinNumSta   MinNumSta=3   AddAtElmInt=Yes   AddAtPtLoad=Yes
   Frame=dyn_363   StationType=MinNumSta   MinNumSta=3   AddAtElmInt=Yes   AddAtPtLoad=Yes
   Frame=dyn_364   StationType=MinNumSta   MinNumSta=3   AddAtElmInt=Yes   AddAtPtLoad=Yes
   Frame=dyn_365   StationType=MinNumSta   MinNumSta=3   AddAtElmInt=Yes   AddAtPtLoad=Yes
   Frame=dyn_366   StationType=MinNumSta   MinNumSta=3   AddAtElmInt=Yes   AddAtPtLoad=Yes
   Frame=dyn_367   StationType=MinNumSta   MinNumSta=3   AddAtElmInt=Yes   AddAtPtLoad=Yes
   Frame=dyn_368   StationType=MinNumSta   MinNumSta=3   AddAtElmInt=Yes   AddAtPtLoad=Yes
   Frame=dyn_369   StationType=MinNumSta   MinNumSta=3   AddAtElmInt=Yes   AddAtPtLoad=Yes
   Frame=dyn_370   StationType=MinNumSta   MinNumSta=3   AddAtElmInt=Yes   AddAtPtLoad=Yes
   Frame=dyn_371   StationType=MinNumSta   MinNumSta=3   AddAtElmInt=Yes   AddAtPtLoad=Yes
   Frame=dyn_372   StationType=MinNumSta   MinNumSta=3   AddAtElmInt=Yes   AddAtPtLoad=Yes
   Frame=dyn_373   StationType=MinNumSta   MinNumSta=3   AddAtElmInt=Yes   AddAtPtLoad=Yes
   Frame=dyn_374   StationType=MinNumSta   MinNumSta=3   AddAtElmInt=Yes   AddAtPtLoad=Yes
   Frame=dyn_375   StationType=MinNumSta   MinNumSta=3   AddAtElmInt=Yes   AddAtPtLoad=Yes
   Frame=dyn_376   StationType=MinNumSta   MinNumSta=3   AddAtElmInt=Yes   AddAtPtLoad=Yes
   Frame=dyn_377   StationType=MinNumSta   MinNumSta=3   AddAtElmInt=Yes   AddAtPtLoad=Yes
   Frame=dyn_378   StationType=MinNumSta   MinNumSta=3   AddAtElmInt=Yes   AddAtPtLoad=Yes
   Frame=dyn_379   StationType=MinNumSta   MinNumSta=3   AddAtElmInt=Yes   AddAtPtLoad=Yes
# ... 60 like lines cut
 
TABLE:  "FRAME SECTION ASSIGNMENTS"
   Frame=dyn_124   AutoSelect=N.A.   AnalSect=W44X224   MatProp=Default
   Frame=dyn_125   AutoSelect=N.A.   AnalSect=W44X224   MatProp=Default
   Frame=dyn_126   AutoSelect=N.A.   AnalSect=W44X224   MatProp=Default
   Frame=dyn_127   AutoSelect=N.A.   AnalSect=W44X224   MatProp=Default
   Frame=dyn_128   AutoSelect=N.A.   AnalSect=W44X224   MatProp=Default
   Frame=dyn_129   AutoSelect=N.A.   AnalSect=W44X224   MatProp=Default
   Frame=dyn_130   AutoSelect=N.A.   AnalSect=W44X224   MatProp=Default
   Frame=dyn_131   AutoSelect=N.A.   AnalSect=W44X224   MatProp=Default
   Frame=dyn_132   AutoSelect=N.A.   AnalSect=W44X224   MatProp=Default
   Frame=dyn_133   AutoSelect=N.A.   AnalSect=W44X224   MatProp=Default
   Frame=dyn_134   AutoSelect=N.A.   AnalSect=W44X224   MatProp=Default
   Frame=dyn_135   AutoSelect=N.A.   AnalSect=W44X224   MatProp=Default
   Frame=dyn_136   AutoSelect=N.A.   AnalSect=W44X224   MatProp=Default
   Frame=dyn_137   AutoSelect=N.A.   AnalSect=W44X224   MatProp=Default
   Frame=dyn_138   AutoSelect=N.A.   AnalSect=W44X224   MatProp=Default
   Frame=dyn_139   AutoSelect=N.A.   AnalSect=W44X224   MatProp=Default
   Frame=dyn_140   AutoSelect=N.A.   AnalSect=W44X224   MatProp=Default
   Frame=dyn_141   AutoSelect=N.A.   AnalSect=W44X224   MatProp=Default
   Frame=dyn_142   AutoSelect=N.A.   AnalSect=W44X224   MatProp=Default
   Frame=dyn_143   AutoSelect=N.A.   AnalSect=W44X224   MatProp=Default
# ... 184 like lines cut
 
TABLE:  "FRAME SECTION PROPERTIES 01 - GENERAL"
   SectionName=FSEC1   Material=A992Fy50   Shape="I/Wide Flange"   t3=0.3048   t2=0.127   tf=0.009652   tw=0.00635   t2b=0.127   tfb=0.009652   Area=0.0042645076   TorsConst=9.65117678053953E-08   I33=6.5724174702235E-05 _
        I22=3.30125717301008E-06   I23=0   AS2=0.00193548   AS3=2.04300666666667E-03   S33=4.3126098885981E-04   S22=5.19883019371667E-05   Z33=4.911874950424E-04   Z22=0.000080716532115   R33=0.124144683132414   R22=2.78230817990979E-02 _
        Color=Magenta   FromFile=No   AMod=1   A2Mod=1   A3Mod=1   JMod=1   I2Mod=1   I3Mod=1   MMod=1   WMod=1   Notes="Added 1/26/2015 2:28:23 PM"
   SectionName=W44X224   Material=A992Fy50   Shape="I/Wide Flange"   t3=1.10007403488159   t2=0.299974010658264   tf=3.59409990310669E-02   tw=1.99390006661415E-02   t2b=0.299974010658264   tfb=3.59409990310669E-02 _
        Area=4.24515299688721E-02   TorsConst=0.000012486942768   I33=0.00799164337152   I22=1.627464874096E-04   I23=0   AS2=2.19341503887939E-02   AS3=1.79689958573151E-02   S33=1.45292827902809E-02   S22=1.08507058363135E-03 _
        Z33=0.01687867592   Z22=0.00172064172   R33=0.433881740949217   R22=6.19168906030694E-02   Color=Yellow   FromFile=Yes   AMod=1   A2Mod=1   A3Mod=1   JMod=1   I2Mod=1   I3Mod=1   MMod=1   WMod=1   SectInFile=W44X224   FileName="C:\Program Files (x86)\Computers and Structures\SAP2000 16\AISCASD9.pro"
 
TABLE:  "FRAME SECTION PROPERTIES 13 - TIME DEPENDENT"
   SectionName=FSEC1   TypeSize=Auto   AutoSFSize=1
   SectionName=W44X224   TypeSize=Auto   AutoSFSize=1
 
TABLE:  "FUNCTION - POWER SPECTRAL DENSITY - USER"
   Name=UNIFPSD   Frequency=0   Value=1
   Name=UNIFPSD   Frequency=1   Value=1
 
TABLE:  "FUNCTION - RESPONSE SPECTRUM - USER"
   Name=UNIFRS   Period=0   Accel=1   FuncDamp=0.05
   Name=UNIFRS   Period=1   Accel=1
 
TABLE:  "FUNCTION - STEADY STATE - USER"
   Name=UNIFSS   Frequency=0   Value=1
   Name=UNIFSS   Frequency=1   Value=1
 
TABLE:  "FUNCTION - TIME HISTORY - USER"
   Name=RAMPTH   Time=0   Value=0
   Name=RAMPTH   Time=1   Value=1
   Name=RAMPTH   Time=4   Value=1
   Name=UNIFTH   Time=0   Value=1
   Name=UNIFTH   Time=1   Value=1
 
TABLE:  "GROUPS 1 - DEFINITIONS"
   GroupName=ALL   Selection=Yes   SectionCut=Yes   Steel=Yes   Concrete=Yes   Aluminum=Yes   ColdFormed=Yes   Stage=Yes   Bridge=Yes   AutoSeismic=No   AutoWind=No   SelDesSteel=No   SelDesAlum=No   SelDesCold=No   MassWeight=Yes   Color=Red
 
TABLE:  "JOINT COORDINATES"
   Joint=1   CoordSys=GLOBAL   CoordType=Cartesian   XorR=0   Y=0   Z=0   SpecialJt=No
   Joint=2   CoordSys=GLOBAL   CoordType=Cartesian   XorR=0   Y=0   Z=350   SpecialJt=No
   Joint=3   CoordSys=GLOBAL   CoordType=Cartesian   XorR=0   Y=0   Z=700   SpecialJt=No
   Joint=4   CoordSys=GLOBAL   CoordType=Cartesian   XorR=0   Y=0   Z=1050   SpecialJt=No
   Joint=5   CoordSys=GLOBAL   CoordType=Cartesian   XorR=0   Y=0   Z=1400   SpecialJt=No
   Joint=6   CoordSys=GLOBAL   CoordType=Cartesian   XorR=300   Y=0   Z=0   SpecialJt=No
   Joint=7   CoordSys=GLOBAL   CoordType=Cartesian   XorR=300   Y=0   Z=350   SpecialJt=No
   Joint=8   CoordSys=GLOBAL   CoordType=Cartesian   XorR=300   Y=0   Z=700   SpecialJt=No
   Joint=9   CoordSys=GLOBAL   CoordType=Cartesian   XorR=300   Y=0   Z=1050   SpecialJt=No
   Joint=10   CoordSys=GLOBAL   CoordType=Cartesian   XorR=300   Y=0   Z=1400   SpecialJt=No
   Joint=11   CoordSys=GLOBAL   CoordType=Cartesian   XorR=600   Y=0   Z=0   SpecialJt=No
   Joint=12   CoordSys=GLOBAL   CoordType=Cartesian   XorR=600   Y=0   Z=350   SpecialJt=No
   Joint=13   CoordSys=GLOBAL   CoordType=Cartesian   XorR=600   Y=0   Z=700   SpecialJt=No
   Joint=14   CoordSys=GLOBAL   CoordType=Cartesian   XorR=600   Y=0   Z=1050   SpecialJt=No
   Joint=15   CoordSys=GLOBAL   CoordType=Cartesian   XorR=600   Y=0   Z=1400   SpecialJt=No
   Joint=16   CoordSys=GLOBAL   CoordType=Cartesian   XorR=900   Y=0   Z=0   SpecialJt=No
   Joint=17   CoordSys=GLOBAL   CoordType=Cartesian   XorR=900   Y=0   Z=350   SpecialJt=No
   Joint=18   CoordSys=GLOBAL   CoordType=Cartesian   XorR=900   Y=0   Z=700   SpecialJt=No
   Joint=19   CoordSys=GLOBAL   CoordType=Cartesian   XorR=900   Y=0   Z=1050   SpecialJt=No
   Joint=20   CoordSys=GLOBAL   CoordType=Cartesian   XorR=900   Y=0   Z=1400   SpecialJt=No
# ... 80 like lines cut
 
TABLE:  "JOINT PATTERN DEFINITIONS"
   Pattern=Default
 
TABLE:  "LOAD CASE DEFINITIONS"
   Case=DEAD   Type=LinStatic   InitialCond=Zero   DesTypeOpt="Prog Det"   DesignType=DEAD   DesActOpt="Prog Det"   DesignAct=Non-Composite   AutoType=None   RunCase=Yes
   Case=MODAL   Type=LinModal   InitialCond=Zero   DesTypeOpt="Prog Det"   DesignType=OTHER   DesActOpt="Prog Det"   DesignAct=Other   AutoType=None   RunCase=Yes
   Case=Live_Load_Sample   Type=LinStatic   InitialCond=Zero   DesTypeOpt="Prog Det"   DesignType=LIVE   DesActOpt="Prog Det"   DesignAct="Short-Term Composite"   AutoType=None   RunCase=Yes
   Case=Dead_Load_Sample   Type=LinStatic   InitialCond=Zero   DesTypeOpt="Prog Det"   DesignType=DEAD   DesActOpt="Prog Det"   DesignAct=Non-Composite   AutoType=None   RunCase=Yes
   Case=Move_Load_Sample   Type=LinStatic   InitialCond=Zero   DesTypeOpt="Prog Det"   DesignType="VEHICLE LIVE"   DesActOpt="Prog Det"   DesignAct="Short-Term Composite"   AutoType=None   RunCase=Yes
   Case=Load_Case_Sample   Type=LinStatic   InitialCond=Zero   DesTypeOpt="Prog Det"   DesignType=OTHER   DesActOpt="Prog Det"   DesignAct="Short-Term Composite"   AutoType=None   RunCase=Yes
 
TABLE:  "LOAD PATTERN DEFINITIONS"
   LoadPat=DEAD   DesignType=DEAD   SelfWtMult=1
   LoadPat=Live_Load_Sample   DesignType=LIVE   SelfWtMult=1.25
   LoadPat=Dead_Load_Sample   DesignType=DEAD   SelfWtMult=1.6
   LoadPat=Move_Load_Sample   DesignType="VEHICLE LIVE"   SelfWtMult=0.75
 
TABLE:  "MASS SOURCE"
   MassSource=MSSSRC1   Elements=Yes   Masses=Yes   Loads=No   IsDefault=Yes
 
TABLE:  "MATERIAL PROPERTIES 01 - GENERAL"
   Material=4000Psi   Type=Concrete   SymType=Isotropic   TempDepend=No   Color=Yellow   Notes="Customary f'c 4000 psi 1/26/2015 2:28:18 PM"
   Material=A992Fy50   Type=Steel   SymType=Isotropic   TempDepend=No   Color=Magenta   Notes="ASTM A992 Grade 50 1/26/2015 2:28:18 PM"
 
TABLE:  "MATERIAL PROPERTIES 02 - BASIC MECHANICAL PROPERTIES"
   Material=4000Psi   UnitWeight=23.5631216161854   UnitMass=2.40276960558926   E1=24855578.0600518   G12=10356490.8583549   U12=0.2   A1=0.0000099
   Material=A992Fy50   UnitWeight=76.9728639422648   UnitMass=7.84904737995992   E1=199947978.795958   G12=76903068.767676   U12=0.3   A1=0.0000117
 
TABLE:  "MATERIAL PROPERTIES 03A - STEEL DATA"
   Material=A992Fy50   Fy=344737.894475789   Fu=448159.262818526   EffFy=379211.683923368   EffFu=492975.189100378   SSCurveOpt=Simple   SSHysType=Kinematic   SHard=0.015   SMax=0.11   SRup=0.17   FinalSlope=-0.1
 
TABLE:  "MATERIAL PROPERTIES 03B - CONCRETE DATA"
   Material=4000Psi   Fc=27579.0315580631   LtWtConc=No   SSCurveOpt=Mander   SSHysType=Takeda   SFc=0.00221914   SCap=0.005   FinalSlope=-0.1   FAngle=0   DAngle=0
 
TABLE:  "MATERIAL PROPERTIES 06 - DAMPING PARAMETERS"
   Material=4000Psi   ModalRatio=0   VisMass=0   VisStiff=0   HysMass=0   HysStiff=0
   Material=A992Fy50   ModalRatio=0   VisMass=0   VisStiff=0   HysMass=0   HysStiff=0
 
TABLE:  "OPTIONS - COLORS - DISPLAY"
   DeviceType=Screen   Points=Blue   LinesFrame=Blue   LinesFrmDL=Blue   LinesCable=Green   LinesTendon=Green   SpringLinks=Green   Restraints=Green   Releases=Green   Axes=Cyan   Text=Black   ShadowLines=Gray8Dark   GuideLines=Gray8Dark _
        Highlight=Red   Selection=10504778   AreaFillBot=Red   AreaFillTop=16744703   AreaFillSd=Red   AreaEdge=DarkRed   SolidF1=Red   SolidF2=Blue   SolidF3=Green   SolidF4=Yellow   SolidF5=White   SolidF6=Cyan   SolidEdge=DarkRed _
        Floor=Gray4   Background=White   BGLowLeft=White   BGLowRight=White   BGUpRight=White   Darkness=0.5
   DeviceType=Printer   Points=Gray8Dark   LinesFrame=Black   LinesFrmDL=Gray4   LinesCable=Black   LinesTendon=Black   SpringLinks=Gray8Dark   Restraints=Gray8Dark   Releases=Gray4   Axes=Black   Text=Black   ShadowLines=Gray4 _
        GuideLines=Gray4   Highlight=Black   Selection=Black   AreaFillBot=Gray4   AreaFillTop=Gray8Dark   AreaFillSd=Gray4   AreaEdge=Black   SolidF1=Gray1Light   SolidF2=Gray2   SolidF3=Gray3   SolidF4=Gray4   SolidF5=Gray5 _
        SolidF6=Gray6   SolidEdge=Black   Floor=Gray4   Background=White   BGLowLeft=White   BGLowRight=White   BGUpRight=White   Darkness=0.5
   DeviceType="Color Printer"   Points=Blue   LinesFrame=Blue   LinesFrmDL=Blue   LinesCable=Green   LinesTendon=Green   SpringLinks=Green   Restraints=Green   Releases=Green   Axes=Cyan   Text=Black   ShadowLines=Gray8Dark _
        GuideLines=Gray8Dark   Highlight=Red   Selection=10504778   AreaFillBot=Red   AreaFillTop=16744703   AreaFillSd=Red   AreaEdge=DarkRed   SolidF1=Red   SolidF2=Blue   SolidF3=Green   SolidF4=Yellow   SolidF5=White   SolidF6=Cyan _
        SolidEdge=DarkRed   Floor=Gray4   Background=White   BGLowLeft=White   BGLowRight=White   BGUpRight=White   Darkness=0.5
 
TABLE:  "OPTIONS - COLORS - OUTPUT"
   DeviceType=Screen   Contour1=13107400   Contour2=6553828   Contour3=Red   Contour4=16639   Contour5=Orange   Contour6=43775   Contour7=54527   Contour8=Yellow   Contour9=65408   Contour10=Green   Contour11=8453888   Contour12=Cyan _
        Contour13=16755200   Contour14=16733440   Contour15=Blue   Transpare=0.5   Ratio1=Cyan   Ratio2=Green   Ratio3=Yellow   Ratio4=Orange   Ratio5=Red   RatioNotD=Gray4   RatioNotC=Red   RatioVal1=0.5   RatioVal2=0.7   RatioVal3=0.9 _
        RatioVal4=1   DFillPos=Blue   DFillNeg=Red   DFillRPos=Green   DFillRNeg=Green
   DeviceType=Printer   Contour1=Black   Contour2=3158064   Contour3=4210752   Contour4=5263440   Contour5=6316128   Contour6=7368816   Contour7=Gray8Dark   Contour8=Gray7   Contour9=Gray6   Contour10=Gray5   Contour11=Gray4 _
        Contour12=Gray3   Contour13=Gray2   Contour14=Gray1Light   Contour15=White   Transpare=0   Ratio1=Gray2   Ratio2=Gray4   Ratio3=Gray8Dark   Ratio4=4210752   Ratio5=Black   RatioNotD=Gray4   RatioNotC=Black   RatioVal1=0.5 _
        RatioVal2=0.7   RatioVal3=0.9   RatioVal4=1   DFillPos=Gray8Dark   DFillNeg=Gray8Dark   DFillRPos=4210752   DFillRNeg=4210752
   DeviceType="Color Printer"   Contour1=13107400   Contour2=6553828   Contour3=Red   Contour4=16639   Contour5=Orange   Contour6=43775   Contour7=54527   Contour8=Yellow   Contour9=65408   Contour10=Green   Contour11=8453888 _
        Contour12=Cyan   Contour13=16755200   Contour14=16733440   Contour15=Blue   Transpare=0   Ratio1=Cyan   Ratio2=Green   Ratio3=Yellow   Ratio4=Orange   Ratio5=Red   RatioNotD=Gray4   RatioNotC=Red   RatioVal1=0.5   RatioVal2=0.7 _
        RatioVal3=0.9   RatioVal4=1   DFillPos=Blue   DFillNeg=Red   DFillRPos=Green   DFillRNeg=Green
 
TABLE:  "PREFERENCES - ALUMINUM DESIGN - AA-ASD 2000"
   THDesign=Envelopes   FrameType="Moment Frame"   SRatioLimit=1   MaxIter=1   LatFact=1.33333333333333   UseLatFact=No   Bridge=No
 
TABLE:  "PREFERENCES - COLD FORMED DESIGN - AISI-ASD96"
   THDesign=Envelopes   FrameType="Braced Frame"   SRatioLimit=1   MaxIter=1   OmegaBS=1.67   OmegaBUS=1.67   OmegaBLTB=1.67   OmegaVS=1.67   OmegaVNS=1.5   OmegaT=1.67   OmegaC=1.8
 
TABLE:  "PREFERENCES - CONCRETE DESIGN - ACI 318-11"
   THDesign=Envelopes   NumCurves=24   NumPoints=11   MinEccen=Yes   PatLLF=0.75   UFLimit=0.95   SeisCat=D   PhiT=0.9   PhiCTied=0.65   PhiCSpiral=0.75   PhiV=0.75   PhiVSeismic=0.6   PhiVJoint=0.85
 
TABLE:  "PREFERENCES - DIMENSIONAL"
   MergeTol=0.001   FineGrid=0.25   Nudge=0.25   SelectTol=3   SnapTol=12   SLineThick=2   PLineThick=4   MaxFont=8   MinFont=3   AutoZoom=10   ShrinkFact=70   TextFileLen=240
 
TABLE:  "PREFERENCES - STEEL DESIGN - AISC 360-10"
   THDesign=Envelopes   FrameType=SMF   PatLLF=0.75   SRatioLimit=0.95   MaxIter=1   SDC=D   SeisCode=Yes   SeisLoad=Yes   ImpFactor=1   SystemRho=1   SystemSds=0.5   SystemR=8   SystemCd=5.5   Omega0=3   Provision=LRFD _
        AMethod="Direct Analysis"   SOMethod="General 2nd Order"   SRMethod="Tau-b Fixed"   NLCoeff=0.002   PhiB=0.9   PhiC=0.9   PhiTY=0.9   PhiTF=0.75   PhiV=0.9   PhiVRolledI=1   PhiVT=0.9   PlugWeld=Yes   HSSWelding=ERW   HSSReduceT=No _
        CheckDefl=No   DLRat=120   SDLAndLLRat=120   LLRat=360   TotalRat=240   NetRat=240
 
TABLE:  "PROGRAM CONTROL"
   ProgramName=SAP2000   Version=16.1.1   CurrUnits="KN, m, C"   SteelCode="AISC 360-10"   ConcCode="ACI 318-11"   AlumCode="AA-ASD 2000"   ColdCode=AISI-ASD96   RegenHinge=Yes
 
TABLE:  "PROJECT INFORMATION"
   Item="Company Name"   Data="Thornton Tomasetti, Inc."
   Item="Client Name"
   Item="Project Name"
   Item="Project Number"
   Item="Model Name"
   Item="Model Description"
   Item="Revision Number"
   Item="Frame Type"
   Item=Engineer
   Item=Checker
   Item=Supervisor
   Item="Issue Code"
   Item="Design Code"
 
TABLE:  "REBAR SIZES"
   RebarID=#2   Area=0.000032258   Diameter=0.00635
   RebarID=#3   Area=7.09675996154547E-05   Diameter=0.009525
   RebarID=#4   Area=1.29032001922727E-04   Diameter=0.0127
   RebarID=#5   Area=1.99999601538181E-04   Diameter=0.015875
   RebarID=#6   Area=2.83870398461819E-04   Diameter=0.01905
   RebarID=#7   Area=3.87096015381813E-04   Diameter=0.022225
   RebarID=#8   Area=5.09676413843632E-04   Diameter=0.0254
   RebarID=#9   Area=0.00064516   Diameter=2.86512005329132E-02
   RebarID=#10   Area=8.1935318769455E-04   Diameter=3.22579995155334E-02
   RebarID=#11   Area=1.00644956308365E-03   Diameter=3.58139991521835E-02
   RebarID=#14   Area=0.00145161   Diameter=4.30021989583969E-02
   RebarID=#18   Area=0.00258064   Diameter=5.73277992248535E-02
   RebarID=10M   Area=1.00000004162606E-04   Diameter=1.13000003604438E-02
   RebarID=15M   Area=2.00000008325212E-04   Diameter=1.60000002402959E-02
   RebarID=20M   Area=3.00000012487818E-04   Diameter=1.95000002928606E-02
   RebarID=25M   Area=5.00000020813031E-04   Diameter=2.52000011414055E-02
   RebarID=30M   Area=7.00000029138243E-04   Diameter=2.99000000675832E-02
   RebarID=35M   Area=1.00000004162606E-03   Diameter=3.57000012990997E-02
   RebarID=45M   Area=1.50000006243909E-03   Diameter=4.37000014192476E-02
   RebarID=55M   Area=2.50000010406515E-03   Diameter=0.056400002372922
   RebarID=6d   Area=2.83000004150781E-05   Diameter=6.00000009011096E-03
   RebarID=8d   Area=5.03000013308514E-05   Diameter=8.00000012014795E-03
   RebarID=10d   Area=7.85000032676458E-05   Diameter=1.00000001501849E-02
   RebarID=12d   Area=1.13000004703745E-04   Diameter=1.20000001802219E-02
   RebarID=14d   Area=1.54000006410413E-04   Diameter=1.40000002102589E-02
   RebarID=16d   Area=2.01000008366838E-04   Diameter=1.60000002402959E-02
   RebarID=20d   Area=3.14000013070583E-04   Diameter=2.00000003003699E-02
   RebarID=25d   Area=4.91000020438396E-04   Diameter=2.50000003754623E-02
   RebarID=26d   Area=5.31000022103439E-04   Diameter=2.60000003904808E-02
   RebarID=28d   Area=6.16000025641654E-04   Diameter=2.80000004205178E-02
   RebarID=N12   Area=1.13000004703745E-04   Diameter=1.20000001802219E-02
   RebarID=N16   Area=2.01000008366838E-04   Diameter=1.60000002402959E-02
   RebarID=N20   Area=3.14000013070583E-04   Diameter=2.00000003003699E-02
   RebarID=N24   Area=4.5200001881498E-04   Diameter=2.40000003604438E-02
   RebarID=N28   Area=6.16000025641654E-04   Diameter=2.80000004205178E-02
   RebarID=N32   Area=8.04000033467353E-04   Diameter=3.20000004805918E-02
   RebarID=N36   Area=1.02000004245858E-03   Diameter=3.60000005406658E-02
 
END TABLE DATA
